Auto-Transcript Start Time:  17:33:45, 02 Jun 2025 Paris, Madrid (heure d’été) 
Current Directory: "C:\Users\somst\Documents\FEA & CFD\FEA---CFD\CFD\ANSYS Fluent\Training\Ansys Courses\Shock-Expansion Theory\Wedge vs Cone Simulation"

              Welcome to ANSYS Fluent 2025 R1

              Copyright 1987-2025 ANSYS, Inc. All Rights Reserved.
              Unauthorized use, distribution or duplication is prohibited.
              This product is subject to U.S. laws governing export and re-export.
              For full Legal Notice, see documentation.

Build Time: Nov 26 2024 13:23:52 EST  Build Id: 10210  
 
Connected License Server List:	<Shared_Web_License_Server>

     --------------------------------------------------------------
     This is a student version of ANSYS FLUENT. Usage of this product
     license is limited to the terms and conditions specified in your ANSYS
     license form, additional terms section.
     --------------------------------------------------------------
Host spawning Node 0 on machine "STANISLAW" (win64).

--------------------------------------------------------------------------------
ID    Hostname   Core  O.S.         PID    Vendor                              
--------------------------------------------------------------------------------
n3    STANISLAW  4/12  Windows-x64  14356  AMD Ryzen 5 5600 6-Core Processor   
n2    STANISLAW  3/12  Windows-x64  25288  AMD Ryzen 5 5600 6-Core Processor   
n1    STANISLAW  2/12  Windows-x64  22604  AMD Ryzen 5 5600 6-Core Processor   
n0*   STANISLAW  1/12  Windows-x64  20568  AMD Ryzen 5 5600 6-Core Processor   
host  STANISLAW        Windows-x64  29480  AMD Ryzen 5 5600 6-Core Processor   

MPI Option Selected: intel
Selected system interconnect: default
--------------------------------------------------------------------------------

Cleanup script file is C:\\Users\\somst\\Documents\\FEA & CFD\\FEA---CFD\\CFD\\ANSYS Fluent\\Training\\Ansys Courses\\Shock-Expansion Theory\\Wedge vs Cone Simulation\\cleanup-fluent-STANISLAW-29480.bat

Graphics driver currently in use: dx11

Multicore SMT processors detected. Processor affinity set!
Reading "C:/Users/somst/Documents/FEA & CFD/FEA---CFD/CFD/ANSYS Fluent/Training/Ansys Courses/Shock-Expansion Theory/Wedge vs Cone Simulation/Wedge-cone.msh"...
Buffering for file scan...

   59311 nodes, binary.
     980 nodes, binary.
  118620 2D interior faces, zone  1, binary.
     490 2D interior faces, zone  2, binary.
      30 2D symmetry faces, zone  6, binary.
     200 2D wall faces, zone  7, binary.
     260 2D pressure-outlet faces, zone  8, binary.
     490 2D wall faces, zone  9, binary.
   59800 quadrilateral cells, zone  5, binary.

Building...
     mesh
	auto partitioning mesh by Metis (fast),
	distributing mesh
		parts....,
		faces....,
		nodes....,
		cells....,
        bandwidth reduction using Reverse Cuthill-McKee: 13719/127 = 108.024
     materials,
     interface,
     domains,
     zones,
	farfield
	outlet
	wall
	symmetry
	fluid
	interior
	interior-fluid
     parallel,
Done.

> (cx-gui-do cx-activate-item "Key Behavioral Changes*PanelButtons*PushButton1(OK)")
(cx-gui-do cx-activate-item "MenuBar*ReadSubMenu*Mesh...")
(cx-gui-do cx-set-toggle-button2 "Read Mesh Options*Table1(Options)*ToggleBox1*Replace mesh" #t)
(cx-gui-do cx-activate-item "Read Mesh Options*Table1(Options)*ToggleBox1*Replace mesh")
(cx-gui-do cx-activate-item "Read Mesh Options*PanelButtons*PushButton1(OK)")
(cx-gui-do cx-set-file-dialog-entries "Select File" '( "Wedge-cone.msh") "All Mesh Files (*.msh* *.MSH* )")

Writing Settings file "C:\Users\somst\AppData\Local\Temp\2"...
	writing rp variables ... Done.
	writing domain variables ... Done.
	writing fluid (type fluid) (mixture) ... Done.
	writing interior-fluid (type interior) (mixture) ... Done.
	writing interior (type interior) (mixture) ... Done.
	writing symmetry (type symmetry) (mixture) ... Done.
	writing wall (type wall) (mixture) ... Done.
	writing outlet (type pressure-outlet) (mixture) ... Done.
	writing farfield (type wall) (mixture) ... Done.
	writing zones map name-id ... Done.
Multicore SMT processors detected. Processor affinity set!
Reading "C:/Users/somst/Documents/FEA & CFD/FEA---CFD/CFD/ANSYS Fluent/Training/Ansys Courses/Shock-Expansion Theory/Wedge vs Cone Simulation/Wedge-cone.msh"...
Buffering for file scan...


       Clearing partially read grid.
   59311 nodes, binary.
     980 nodes, binary.
  118620 2D interior faces, zone  1, binary.
     490 2D interior faces, zone  2, binary.
      30 2D symmetry faces, zone  6, binary.
     200 2D wall faces, zone  7, binary.
     260 2D pressure-outlet faces, zone  8, binary.
     490 2D wall faces, zone  9, binary.
   59800 quadrilateral cells, zone  5, binary.

Building...
     mesh
	auto partitioning mesh by Metis (fast),
	distributing mesh
		parts....,
		faces....,
		nodes....,
		cells....,
        bandwidth reduction using Reverse Cuthill-McKee: 13719/127 = 108.024
     materials,
     interface,
     domains,
     zones,
	farfield
	outlet
	wall
	symmetry
	fluid
	interior
	interior-fluid
     parallel,
Done.
 Setting zone id of fluid to 5.
 Setting zone id of interior-fluid to 1.
 Setting zone id of interior to 2.
 Setting zone id of symmetry to 6.
 Setting zone id of wall to 7.
 Setting zone id of outlet to 8.
 Setting zone id of farfield to 9.
Done.

Setting fluid (mixture) ... Done.
Setting interior-fluid (mixture) ... Done.
Setting interior (mixture) ... Done.
Setting symmetry (mixture) ... Done.
Setting wall (mixture) ... Done.
Setting outlet (mixture) ... Done.
Setting farfield (mixture) ... Done.



Following contexts active in the case file have been de-activated because of their current context control conditions:
"coupled-pseudo-transient"
(cx-use-window-id 51)
(build-popup-menu)
(cx-gui-do cx-activate-item "MenuBar*DisplaySubMenu*Mesh...")
(cx-gui-do cx-set-toggle-button2 "Mesh Display*Table1*Frame1*Frame1*ToggleBox1(Options)*CheckButton1(Nodes)" #t)
(cx-gui-do cx-activate-item "Mesh Display*Table1*Frame1*Frame1*ToggleBox1(Options)*CheckButton1(Nodes)")
(cx-gui-do cx-set-toggle-button2 "Mesh Display*Table1*Frame1*Frame1*ToggleBox1(Options)*CheckButton1(Nodes)" #f)
(cx-gui-do cx-activate-item "Mesh Display*Table1*Frame1*Frame1*ToggleBox1(Options)*CheckButton1(Nodes)")
(cx-gui-do cx-set-list-selections "Mesh Display*Table1*Frame3*Frame1*List1(Surfaces)" '( 1 2 3 4 5))
(cx-gui-do cx-activate-item "Mesh Display*Table1*Frame3*Frame1*List1(Surfaces)")
(cx-gui-do cx-set-list-selections "Mesh Display*Table1*Frame3*Frame1*List1(Surfaces)" '( 2 3 4 5))
(cx-gui-do cx-activate-item "Mesh Display*Table1*Frame3*Frame1*List1(Surfaces)")
(cx-gui-do cx-set-list-selections "Mesh Display*Table1*Frame3*Frame1*List1(Surfaces)" '( 0 2 3 4 5))
(cx-gui-do cx-activate-item "Mesh Display*Table1*Frame3*Frame1*List1(Surfaces)")
(cx-gui-do cx-set-list-selections "Mesh Display*Table1*Frame3*Frame1*List1(Surfaces)" '( 0 1 2 3 4 5))
(cx-gui-do cx-activate-item "Mesh Display*Table1*Frame3*Frame1*List1(Surfaces)")
(cx-gui-do cx-activate-item "Mesh Display*PanelButtons*PushButton1(OK)")
(cx-gui-do cx-activate-item "Mesh Display*PanelButtons*PushButton2(Cancel)")
(cx-gui-do cx-activate-item "Ribbon*Frame1*Frame2(Domain)*Table1*Table3(Mesh)*PushButton4(Check)")
(cx-gui-do cx-activate-item "MenuBar*PopupMenuCheck*Perform Mesh Check")

 Domain Extents:
   x-coordinate: min (m) = -3.000000e-01, max (m) = 4.890738e-01
   y-coordinate: min (m) = 0.000000e+00, max (m) = 4.114947e-01
 Volume statistics:
   minimum volume (m3): 7.538316e-09
   maximum volume (m3): 2.613806e-04
     total volume (m3): 2.992786e-01
 Face area statistics:
   minimum face area (m2): 3.381645e-06
   maximum face area (m2): 2.598256e-02
 Checking mesh.....................................
Done.
 (cx-gui-do cx-activate-item "Ribbon*Frame1*Frame2(Domain)*Table1*Table3(Mesh)*PushButton4(Check)")
(cx-gui-do cx-activate-item "MenuBar*PopupMenuCheck*Perform Mesh Check")

 Domain Extents:
   x-coordinate: min (m) = -3.000000e-01, max (m) = 4.890738e-01
   y-coordinate: min (m) = 0.000000e+00, max (m) = 4.114947e-01
 Volume statistics:
   minimum volume (m3): 7.538316e-09
   maximum volume (m3): 2.613806e-04
     total volume (m3): 2.992786e-01
 Face area statistics:
   minimum face area (m2): 3.381645e-06
   maximum face area (m2): 2.598256e-02
 Checking mesh.....................................
Done.
 (cx-gui-do cx-activate-item "Ribbon*Frame1*Frame2(Domain)*Table1*Table3(Mesh)*PushButton5(  Quality)")
(cx-gui-do cx-activate-item "MenuBar*PopupMenuQuality*Evaluate Mesh Quality")

Mesh Quality:

Minimum Orthogonal Quality =  9.78134e-01 cell 7249 on zone 5 (ID: 59800 on partition: 3) at location ( 4.87736e-01,  1.18946e-01)


Maximum Aspect Ratio =  7.68341e+03 cell 7965 on zone 5 (ID: 140 on partition: 0) at location (-2.87009e-01,  1.69082e-06)
(cx-gui-do cx-activate-item "Ribbon*Frame1*Frame3(Physics)*Table1*Table3(Solver)*PushButton1(General)")
(cx-gui-do cx-set-toggle-button2 "General*Table1*Table2(Solver)*ButtonBox1(Type)*Density-Based" #t)
(cx-gui-do cx-activate-item "General*Table1*Table2(Solver)*ButtonBox1(Type)*Density-Based")
(cx-gui-do cx-activate-item "Ribbon*Frame1*Frame3(Physics)*Table1*Table3(Solver)*PushButton2(Operating Conditions)")
(cx-gui-do cx-set-expression-entry "Operating Conditions*Frame1*Table1(Pressure)*ExpressionEntry2(Operating Pressure)" '("0" . 0))
(cx-gui-do cx-activate-item "Operating Conditions*PanelButtons*PushButton1(OK)")
(cx-gui-do cx-set-toggle-button2 "Ribbon*Frame1*Frame3(Physics)*Table1*Table3(Models)*CheckButton1(Energy)" #t)
(cx-gui-do cx-activate-item "Ribbon*Frame1*Frame3(Physics)*Table1*Table3(Models)*CheckButton1(Energy)")
(cx-gui-do cx-activate-item "Ribbon*Frame1*Frame3(Physics)*Table1*Table3(Models)*PushButton4(Viscous)")
(cx-gui-do cx-activate-item "Viscous Model*PanelButtons*PushButton1(OK)")
(cx-gui-do cx-activate-item "Ribbon*Frame1*Frame3(Physics)*Table1*Table3(Materials)*PushButton1(Create/Edit)")
(cx-gui-do cx-set-list-selections "Create/Edit Materials*Table2*Table1(Properties)*DropDownList4(Density)" '( 1))
(cx-gui-do cx-activate-item "Create/Edit Materials*Table2*Table1(Properties)*DropDownList4(Density)")
(cx-gui-do cx-set-list-selections "Create/Edit Materials*Table2*Table1(Properties)*DropDownList7(Viscosity)" '( 6))
(cx-gui-do cx-activate-item "Create/Edit Materials*Table2*Table1(Properties)*DropDownList7(Viscosity)")
(cx-gui-do cx-activate-item "Sutherland Law*PanelButtons*PushButton1(OK)")
(cx-gui-do cx-activate-item "Create/Edit Materials*PanelButtons*PushButton3(Change/Create)")
(cx-gui-do cx-activate-item "Create/Edit Materials*PanelButtons*PushButton1(Close)")
(cx-gui-do cx-activate-item "Ribbon*Frame1*Frame3(Physics)*Table1*Table3(Zones)*PushButton1(Cell Zones)")
(cx-gui-do cx-set-list-selections "Boundary Conditions*Table1*List2(Zone)" '( 0))
(cx-gui-do cx-activate-item "Boundary Conditions*Table1*List2(Zone)")
(cx-gui-do cx-activate-item "Boundary Conditions*Table1*Table3*Table4*ButtonBox1*PushButton1(Edit)")
(cx-gui-do cx-activate-tab-index "Fluid*Frame2*Table3*Frame1" 0)
(cx-gui-do cx-activate-tab-index "Fluid*Frame2*Table3*Frame1" 1)
(cx-gui-do cx-activate-tab-index "Fluid*Frame2*Table3*Frame1" 0)
(cx-gui-do cx-activate-tab-index "Fluid*Frame2*Table3*Frame1" 2)
(cx-gui-do cx-activate-tab-index "Fluid*Frame2*Table3*Frame1" 0)
(cx-gui-do cx-activate-tab-index "Fluid*Frame2*Table3*Frame1" 2)
(cx-gui-do cx-activate-tab-index "Fluid*Frame2*Table3*Frame1" 0)
(cx-gui-do cx-activate-tab-index "Fluid*Frame2*Table3*Frame1" 3)
(cx-gui-do cx-activate-tab-index "Fluid*Frame2*Table3*Frame1" 0)
(cx-gui-do cx-activate-tab-index "Fluid*Frame2*Table3*Frame1" 4)
(cx-gui-do cx-activate-tab-index "Fluid*Frame2*Table3*Frame1" 0)
(cx-gui-do cx-activate-tab-index "Fluid*Frame2*Table3*Frame1" 5)
(cx-gui-do cx-activate-tab-index "Fluid*Frame2*Table3*Frame1" 0)
(cx-gui-do cx-activate-tab-index "Fluid*Frame2*Table3*Frame1" 6)
(cx-gui-do cx-activate-tab-index "Fluid*Frame2*Table3*Frame1" 0)
(cx-gui-do cx-activate-tab-index "Fluid*Frame2*Table3*Frame1" 7)
(cx-gui-do cx-activate-tab-index "Fluid*Frame2*Table3*Frame1" 0)
(cx-gui-do cx-activate-tab-index "Fluid*Frame2*Table3*Frame1" 8)
(cx-gui-do cx-activate-tab-index "Fluid*Frame2*Table3*Frame1" 0)
(cx-gui-do cx-activate-tab-index "Fluid*Frame2*Table3*Frame1" 9)
(cx-gui-do cx-activate-tab-index "Fluid*Frame2*Table3*Frame1" 0)
(cx-gui-do cx-activate-item "Fluid*PanelButtons*PushButton1(OK)")
(cx-gui-do cx-enable-apply-button "Fluid")
(cx-gui-do cx-activate-item "Fluid*PanelButtons*PushButton2(Cancel)")
(cx-gui-do cx-activate-item "Ribbon*Frame1*Frame3(Physics)*Table1*Table3(Zones)*PushButton2(Boundaries)")
(cx-gui-do cx-set-list-selections "Boundary Conditions*Table1*List2(Zone)" '( 0))
(cx-gui-do cx-activate-item "Boundary Conditions*Table1*List2(Zone)")
(cx-gui-do cx-set-list-selections "Boundary Conditions*Table1*Table3*DropDownList2(Type)" '( 10))
(cx-gui-do cx-activate-item "Boundary Conditions*Table1*Table3*DropDownList2(Type)")
(cx-gui-do cx-activate-tab-index "Pressure Far-Field*Frame3" 0)
(cx-gui-do cx-activate-tab-index "Pressure Far-Field*Frame3" 1)
(cx-gui-do cx-activate-tab-index "Pressure Far-Field*Frame3" 0)
(cx-gui-do cx-activate-tab-index "Pressure Far-Field*Frame3" 2)
(cx-gui-do cx-activate-tab-index "Pressure Far-Field*Frame3" 0)
(cx-gui-do cx-activate-tab-index "Pressure Far-Field*Frame3" 3)
(cx-gui-do cx-activate-tab-index "Pressure Far-Field*Frame3" 0)
(cx-gui-do cx-activate-tab-index "Pressure Far-Field*Frame3" 4)
(cx-gui-do cx-activate-tab-index "Pressure Far-Field*Frame3" 0)
(cx-gui-do cx-activate-tab-index "Pressure Far-Field*Frame3" 5)
(cx-gui-do cx-activate-tab-index "Pressure Far-Field*Frame3" 0)
(cx-gui-do cx-activate-tab-index "Pressure Far-Field*Frame3" 6)
(cx-gui-do cx-activate-tab-index "Pressure Far-Field*Frame3" 0)
(cx-gui-do cx-activate-tab-index "Pressure Far-Field*Frame3" 7)
(cx-gui-do cx-activate-tab-index "Pressure Far-Field*Frame3" 0)
(cx-gui-do cx-enable-apply-button "Pressure Far-Field")
(cx-gui-do cx-set-expression-entry "Pressure Far-Field*Frame3*Frame1(Momentum)*Table1*Table11*ExpressionEntry1(Gauge Pressure)" '("50000" . 0))
(cx-gui-do cx-set-expression-entry "Pressure Far-Field*Frame3*Frame1(Momentum)*Table1*Table14*ExpressionEntry1(X-Component of Flow Direction)" '("1" . 0))
(cx-gui-do cx-set-expression-entry "Pressure Far-Field*Frame3*Frame1(Momentum)*Table1*Table12*ExpressionEntry1(Mach Number)" '("2.5" . 0))
(cx-gui-do cx-set-expression-entry "Pressure Far-Field*Frame3*Frame1(Momentum)*Table1*Table3(Turbulence)*ExpressionEntry9(Turbulent Intensity)" '("0.01" . 0))
(cx-gui-do cx-set-expression-entry "Pressure Far-Field*Frame3*Frame1(Momentum)*Table1*Table3(Turbulence)*ExpressionEntry12(Turbulent Viscosity Ratio)" '("2" . 0))
(cx-gui-do cx-activate-tab-index "Pressure Far-Field*Frame3" 1)
(cx-gui-do cx-set-expression-entry "Pressure Far-Field*Frame3*Frame2(Thermal)*Table1*Table1*ExpressionEntry1(Temperature)" '("150" . 0))
(cx-gui-do cx-activate-item "Pressure Far-Field*PanelButtons*PushButton1(OK)")
(cx-gui-do cx-activate-item "Pressure Far-Field*PanelButtons*PushButton1(OK)")
(cx-gui-do cx-activate-item "Pressure Far-Field*PanelButtons*PushButton2(Cancel)")
(cx-gui-do cx-activate-item "Boundary Conditions*Table1*Table3*Table4*ButtonBox1*PushButton1(Edit)")
(cx-gui-do cx-activate-tab-index "Pressure Far-Field*Frame3" 0)
(cx-gui-do cx-activate-item "Pressure Far-Field*PanelButtons*PushButton2(Cancel)")
(cx-gui-do cx-set-list-selections "Boundary Conditions*Table1*List2(Zone)" '( 4))
(cx-gui-do cx-activate-item "Boundary Conditions*Table1*List2(Zone)")
(cx-gui-do cx-set-list-selections "Boundary Conditions*Table1*List2(Zone)" '( 3))
(cx-gui-do cx-activate-item "Boundary Conditions*Table1*List2(Zone)")
(cx-gui-do cx-activate-item "Boundary Conditions*Table1*Table3*Table4*ButtonBox1*PushButton1(Edit)")
(cx-gui-do cx-activate-tab-index "Pressure Outlet*Frame2*Frame2" 0)
(cx-gui-do cx-activate-tab-index "Pressure Outlet*Frame2*Frame2" 1)
(cx-gui-do cx-activate-tab-index "Pressure Outlet*Frame2*Frame2" 0)
(cx-gui-do cx-activate-tab-index "Pressure Outlet*Frame2*Frame2" 2)
(cx-gui-do cx-activate-tab-index "Pressure Outlet*Frame2*Frame2" 0)
(cx-gui-do cx-activate-tab-index "Pressure Outlet*Frame2*Frame2" 3)
(cx-gui-do cx-activate-tab-index "Pressure Outlet*Frame2*Frame2" 0)
(cx-gui-do cx-activate-tab-index "Pressure Outlet*Frame2*Frame2" 4)
(cx-gui-do cx-activate-tab-index "Pressure Outlet*Frame2*Frame2" 0)
(cx-gui-do cx-activate-tab-index "Pressure Outlet*Frame2*Frame2" 5)
(cx-gui-do cx-activate-tab-index "Pressure Outlet*Frame2*Frame2" 0)
(cx-gui-do cx-activate-tab-index "Pressure Outlet*Frame2*Frame2" 6)
(cx-gui-do cx-activate-tab-index "Pressure Outlet*Frame2*Frame2" 0)
(cx-gui-do cx-activate-tab-index "Pressure Outlet*Frame2*Frame2" 7)
(cx-gui-do cx-activate-tab-index "Pressure Outlet*Frame2*Frame2" 0)
(cx-gui-do cx-activate-tab-index "Pressure Outlet*Frame2*Frame2" 8)
(cx-gui-do cx-activate-tab-index "Pressure Outlet*Frame2*Frame2" 0)
(cx-gui-do cx-activate-item "Pressure Outlet*PanelButtons*PushButton2(Cancel)")
(cx-gui-do cx-set-list-selections "Boundary Conditions*Table1*Table3*DropDownList2(Type)" '( 12))
(cx-gui-do cx-activate-item "Boundary Conditions*Table1*Table3*DropDownList2(Type)")
(cx-gui-do cx-enable-apply-button "Pressure Outlet")
(cx-gui-do cx-set-expression-entry "Pressure Outlet*Frame2*Frame2*Frame1(Momentum)*Table1*Table7*ExpressionEntry1(Gauge Pressure)" '("50000" . 0))
(cx-gui-do cx-set-expression-entry "Pressure Outlet*Frame2*Frame2*Frame1(Momentum)*Table1*Table3(Turbulence)*ExpressionEntry9(Backflow Turbulent Intensity)" '("0.01" . 0))
(cx-gui-do cx-set-expression-entry "Pressure Outlet*Frame2*Frame2*Frame1(Momentum)*Table1*Table3(Turbulence)*ExpressionEntry12(Backflow Turbulent Viscosity Ratio)" '("2" . 0))
(cx-gui-do cx-activate-tab-index "Pressure Outlet*Frame2*Frame2" 1)
(cx-gui-do cx-set-expression-entry "Pressure Outlet*Frame2*Frame2*Frame2(Thermal)*Table1*Table1*ExpressionEntry1(Backflow Total Temperature)" '("337.5" . 0))
(cx-gui-do cx-activate-tab-index "Pressure Outlet*Frame2*Frame2" 0)
(cx-gui-do cx-activate-tab-index "Pressure Outlet*Frame2*Frame2" 1)
(cx-gui-do cx-activate-tab-index "Pressure Outlet*Frame2*Frame2" 0)
(cx-gui-do cx-activate-item "Pressure Outlet*PanelButtons*PushButton1(OK)")
(cx-gui-do cx-activate-item "Pressure Outlet*PanelButtons*PushButton1(OK)")
(cx-gui-do cx-activate-item "Pressure Outlet*PanelButtons*PushButton2(Cancel)")
(cx-gui-do cx-set-list-selections "Boundary Conditions*Table1*List2(Zone)" '( 4))
(cx-gui-do cx-activate-item "Boundary Conditions*Table1*List2(Zone)")
(cx-gui-do cx-set-list-selections "Boundary Conditions*Table1*List2(Zone)" '( 5))
(cx-gui-do cx-activate-item "Boundary Conditions*Table1*List2(Zone)")
(cx-gui-do cx-activate-item "Boundary Conditions*Table1*Table3*Table4*ButtonBox1*PushButton1(Edit)")
(cx-gui-do cx-activate-tab-index "Wall*Frame4" 0)
(cx-gui-do cx-activate-tab-index "Wall*Frame4" 1)
(cx-gui-do cx-activate-tab-index "Wall*Frame4" 0)
(cx-gui-do cx-activate-tab-index "Wall*Frame4" 2)
(cx-gui-do cx-activate-tab-index "Wall*Frame4" 0)
(cx-gui-do cx-activate-tab-index "Wall*Frame4" 3)
(cx-gui-do cx-activate-tab-index "Wall*Frame4" 0)
(cx-gui-do cx-activate-tab-index "Wall*Frame4" 4)
(cx-gui-do cx-activate-tab-index "Wall*Frame4" 0)
(cx-gui-do cx-activate-tab-index "Wall*Frame4" 5)
(cx-gui-do cx-activate-tab-index "Wall*Frame4" 0)
(cx-gui-do cx-activate-tab-index "Wall*Frame4" 6)
(cx-gui-do cx-activate-tab-index "Wall*Frame4" 0)
(cx-gui-do cx-activate-tab-index "Wall*Frame4" 7)
(cx-gui-do cx-activate-tab-index "Wall*Frame4" 0)
(cx-gui-do cx-activate-tab-index "Wall*Frame4" 8)
(cx-gui-do cx-activate-tab-index "Wall*Frame4" 0)
(cx-gui-do cx-activate-tab-index "Wall*Frame4" 9)
(cx-gui-do cx-activate-tab-index "Wall*Frame4" 0)
(cx-gui-do cx-activate-tab-index "Wall*Frame4" 10)
(cx-gui-do cx-activate-tab-index "Wall*Frame4" 0)
(cx-gui-do cx-activate-tab-index "Wall*Frame4*Frame8(Wall Film)*Frame1*Frame2" 0)
(cx-gui-do cx-activate-tab-index "Wall*Frame4*Frame8(Wall Film)*Frame1*Frame2" 1)
(cx-gui-do cx-activate-tab-index "Wall*Frame4*Frame8(Wall Film)*Frame1*Frame2" 0)
(cx-gui-do cx-activate-tab-index "Wall*Frame4*Frame8(Wall Film)*Frame1*Frame2" 2)
(cx-gui-do cx-activate-tab-index "Wall*Frame4*Frame8(Wall Film)*Frame1*Frame2" 0)
(cx-gui-do cx-activate-tab-index "Wall*Frame4*Frame8(Wall Film)*Frame1*Frame2" 3)
(cx-gui-do cx-activate-tab-index "Wall*Frame4*Frame8(Wall Film)*Frame1*Frame2" 0)
(cx-gui-do cx-activate-tab-index "Wall*Frame4*Frame8(Wall Film)*Frame1*Frame2" 4)
(cx-gui-do cx-activate-tab-index "Wall*Frame4*Frame8(Wall Film)*Frame1*Frame2" 0)
(cx-gui-do cx-activate-tab-index "Wall*Frame4*Frame8(Wall Film)*Frame1*Frame2" 5)
(cx-gui-do cx-activate-tab-index "Wall*Frame4*Frame8(Wall Film)*Frame1*Frame2" 0)
(cx-gui-do cx-activate-tab-index "Wall*Frame4" 1)
(cx-gui-do cx-activate-item "Wall*PanelButtons*PushButton1(OK)")
(cx-gui-do cx-activate-item "Wall*PanelButtons*PushButton2(Cancel)")
(cx-gui-do cx-activate-item "Ribbon*Frame1*Frame5(Solution)*Table1*Table3(Solution)*PushButton1(Methods)")
(cx-gui-do cx-set-list-selections "Solution Methods*Table1*Table1*DropDownList2(Flux Type)" '( 1))
(cx-gui-do cx-activate-item "Solution Methods*Table1*Table1*DropDownList2(Flux Type)")
(cx-gui-do cx-set-toggle-button2 "Solution Methods*Table1*Table8*CheckButton1(High Order Term Relaxation)" #t)
(cx-gui-do cx-activate-item "Solution Methods*Table1*Table8*CheckButton1(High Order Term Relaxation)")
(cx-gui-do cx-activate-item "Solution Methods*Table1*Table8*PushButton2(Options)")
(cx-gui-do cx-set-toggle-button2 "Relaxation Options*Table1(Variables)*ToggleBox1*All Variables" #t)
(cx-gui-do cx-activate-item "Relaxation Options*Table1(Variables)*ToggleBox1*All Variables")
(cx-gui-do cx-activate-item "Relaxation Options*PanelButtons*PushButton1(OK)")
(cx-gui-do cx-set-toggle-button2 "Solution Methods*Table1*CheckButton9(Convergence Acceleration For Stretched Meshes)" #t)
(cx-gui-do cx-activate-item "Solution Methods*Table1*CheckButton9(Convergence Acceleration For Stretched Meshes)")
.
------------------------------------------------------------------------------- 
 Convergence Acceleration for Stretched Meshes (CASM) has been selected.  
 - The use of FMG initialization is highly recommended to provide good initial 
   solution field before the start of calculations with CASM option.
 - Maximum benefit of CASM option is realized when local flow is aligned  
   with mesh stretching.
------------------------------------------------------------------------------- 
(cx-gui-do cx-activate-item "Ribbon*Frame1*Frame5(Solution)*Table1*Table3(Controls)*PushButton1(Controls)")
solve

/solve> set

/solve/set> numerics
1st-order to higher-order blending factor [min=0.0 - max=1.0]: [1] 0.75

/solve/set> q

/solve> (cx-gui-do cx-activate-item "Ribbon*Frame1*Frame5(Solution)*Table1*Table3(Reports)*PushButton1(Residuals)")
(cx-gui-do cx-activate-item "Residual Monitors*PanelButtons*PushButton1(OK)")
(cx-gui-do cx-activate-item "Ribbon*Frame1*Frame5(Solution)*Table1*Table3(Reports)*PushButton2(Definitions)")
(cx-gui-do cx-activate-item "Ribbon*Frame1*Frame5(Solution)*Table1*Table3(Reports)*PushButton2(Definitions)")
(cx-gui-do cx-activate-item "Ribbon*Frame1*Frame5(Solution)*Table1*Table3(Reports)*PushButton2(Definitions)")
(cx-gui-do cx-activate-item "Ribbon*Frame1*Frame5(Solution)*Table1*Table3(Reports)*PushButton2(Definitions)")
(cx-gui-do cx-activate-item "Ribbon*Frame1*Frame5(Solution)*Table1*Table3(Reports)*PushButton2(Definitions)")
(cx-gui-do cx-activate-item "MenuBar*Surface ReportSubMenu*Area-Weighted Average...")
(cx-gui-do cx-set-text-entry "Surface Report Definition*Table1*Table1*TextEntry1(Name)" "wall-pressure")
(cx-gui-do cx-activate-item "Surface Report Definition*Table1*Table1*TextEntry1(Name)")
(cx-gui-do cx-set-list-selections "Surface Report Definition*Table1*Table2*Table6*List1(Surfaces)" '( 5))
(cx-gui-do cx-activate-item "Surface Report Definition*Table1*Table2*Table6*List1(Surfaces)")
(cx-gui-do cx-activate-item "Surface Report Definition*PanelButtons*PushButton1(OK)")
(cx-gui-do cx-activate-item "Ribbon*Frame1*Frame5(Solution)*Table1*Table3(Initialization)*PushButton6(Initialize)")

Initialize using the hybrid initialization method.

Checking case topology... 
-This case combines farfield, inlets and outlets 
-Pressure information is available at the boundaries

	iter		scalar-0		scalar-1

	1		1.000000e+00	1.000000e+00
	2		9.139049e-08	5.718209e-17
	3		3.786663e-08	5.826624e-17
	4		8.073681e-09	5.811511e-17
	5		2.644657e-09	5.871406e-17
	6		1.029241e-09	5.695605e-17
	7		4.933266e-10	5.699348e-17
	8		1.781895e-10	5.701718e-17
	9		6.773272e-11	5.721799e-17
	10		2.452563e-11	5.867924e-17

Hybrid initialization is done.
initialize

/solve/initialize> fmg
Enable FMG initialize? [no] yes

Creating multigrid levels... 
 Grid Level  0:  59800 cells, 120090 faces,  60291 nodes;   4 clusters
 Grid Level  1:  15059 cells,  60580 faces,  60291 nodes;   4 clusters
 Grid Level  1:  15059 cells,  32748 faces,      0 nodes
 Grid Level  2:   4069 cells,  32524 faces,  60291 nodes;   4 clusters
 Grid Level  2:   4069 cells,   9561 faces,      0 nodes
 Grid Level  3:   1162 cells,  18410 faces,  60291 nodes;   4 clusters
 Grid Level  3:   1162 cells,   2942 faces,      0 nodes
 Grid Level  4:    354 cells,  11067 faces,  60291 nodes;   4 clusters
 Grid Level  4:    354 cells,    974 faces,      0 nodes
 Grid Level  5:    107 cells,   6778 faces,  60291 nodes;   4 clusters
 Grid Level  5:    107 cells,    330 faces,      0 nodes
Done.


FMG: Converge FAS on level 5 [eps = 0.001000, max-iter=800]
.......... -> Normalized residual = 2.53307 
.......... -> Normalized residual = 6.06573 
.......... -> Normalized residual = 5.85777 
.......... -> Normalized residual = 2.508 
.......... -> Normalized residual = 1.36113 
.......... -> Normalized residual = 1.08653 
.......... -> Normalized residual = 0.84279 
.......... -> Normalized residual = 0.671591 
.......... -> Normalized residual = 0.552838 
.......... -> Normalized residual = 0.447744 
.......... -> Normalized residual = 0.359131 
.......... -> Normalized residual = 0.291943 
.......... -> Normalized residual = 0.242003 
.......... -> Normalized residual = 0.204344 
.......... -> Normalized residual = 0.175568 
.......... -> Normalized residual = 0.153686 
.......... -> Normalized residual = 0.137359 
.......... -> Normalized residual = 0.125468 
.......... -> Normalized residual = 0.117038 
.......... -> Normalized residual = 0.111235 
.......... -> Normalized residual = 0.107376 
.......... -> Normalized residual = 0.10492 
.......... -> Normalized residual = 0.10346 
.......... -> Normalized residual = 0.102698 
.......... -> Normalized residual = 0.102454 
.......... -> Normalized residual = 0.10243 
.......... -> Normalized residual = 0.101695 
.......... -> Normalized residual = 0.10078 
.......... -> Normalized residual = 0.0998688 
.......... -> Normalized residual = 0.0989253 
.......... -> Normalized residual = 0.09781 
.......... -> Normalized residual = 0.0965069 
.......... -> Normalized residual = 0.0950208 
.......... -> Normalized residual = 0.0934232 
.......... -> Normalized residual = 0.0918064 
.......... -> Normalized residual = 0.090242 
.......... -> Normalized residual = 0.0887894 
.......... -> Normalized residual = 0.0875025 
.......... -> Normalized residual = 0.0864243 
.......... -> Normalized residual = 0.0855797 
.......... -> Normalized residual = 0.0849758 
.......... -> Normalized residual = 0.0846071 
.......... -> Normalized residual = 0.0844595 
.......... -> Normalized residual = 0.0845123 
.......... -> Normalized residual = 0.0847415 
.......... -> Normalized residual = 0.085121 
.......... -> Normalized residual = 0.0856243 
.......... -> Normalized residual = 0.0862256 
.......... -> Normalized residual = 0.0869007 
.......... -> Normalized residual = 0.0876274 
.......... -> Normalized residual = 0.0883858 
.......... -> Normalized residual = 0.0891588 
.......... -> Normalized residual = 0.0899313 
.......... -> Normalized residual = 0.0906912 
.......... -> Normalized residual = 0.0914285 
.......... -> Normalized residual = 0.0921352 
.......... -> Normalized residual = 0.0928055 
.......... -> Normalized residual = 0.0934351 
.......... -> Normalized residual = 0.0940213 
.......... -> Normalized residual = 0.0945625 
.......... -> Normalized residual = 0.0950585 
.......... -> Normalized residual = 0.0955152 
.......... -> Normalized residual = 0.0959351 
.......... -> Normalized residual = 0.096326 
.......... -> Normalized residual = 0.0966742 
.......... -> Normalized residual = 0.0969778 
.......... -> Normalized residual = 0.0972385 
.......... -> Normalized residual = 0.097458 
.......... -> Normalized residual = 0.0976385 
.......... -> Normalized residual = 0.0977823 
.......... -> Normalized residual = 0.0978913 
.......... -> Normalized residual = 0.0979673 
.......... -> Normalized residual = 0.09801 
.......... -> Normalized residual = 0.0980231 
.......... -> Normalized residual = 0.0980091 
.......... -> Normalized residual = 0.0979687 
.......... -> Normalized residual = 0.0979027 
.......... -> Normalized residual = 0.0978123 
.......... -> Normalized residual = 0.0976982 
.......... -> Normalized residual = 0.0975613 

FMG: FAS reached maximum iterations. 
 Normalized residual = 0.0975613 

FMG: Finished work on level = 5
FMG: Interpolate solution on next level ... done

FMG: Converge FAS on level 4 [eps = 0.001000, max-iter=800]
.......... -> Normalized residual = 0.216858 
.......... -> Normalized residual = 0.0824149 
.......... -> Normalized residual = 0.0500918 
.......... -> Normalized residual = 0.0548301 
.......... -> Normalized residual = 0.0443874 
.......... -> Normalized residual = 0.0405777 
.......... -> Normalized residual = 0.0365812 
.......... -> Normalized residual = 0.0317249 
.......... -> Normalized residual = 0.0273402 
.......... -> Normalized residual = 0.024673 
.......... -> Normalized residual = 0.024187 
.......... -> Normalized residual = 0.02495 
.......... -> Normalized residual = 0.0255418 
.......... -> Normalized residual = 0.0252003 
.......... -> Normalized residual = 0.0240912 
.......... -> Normalized residual = 0.0228791 
.......... -> Normalized residual = 0.0222089 
.......... -> Normalized residual = 0.0222609 
.......... -> Normalized residual = 0.0227918 
.......... -> Normalized residual = 0.0234218 
.......... -> Normalized residual = 0.0238867 
.......... -> Normalized residual = 0.0240913 
.......... -> Normalized residual = 0.0240421 
.......... -> Normalized residual = 0.0237959 
.......... -> Normalized residual = 0.0234171 
.......... -> Normalized residual = 0.0229599 
.......... -> Normalized residual = 0.0224608 
.......... -> Normalized residual = 0.0219439 
.......... -> Normalized residual = 0.0214252 
.......... -> Normalized residual = 0.0209122 
.......... -> Normalized residual = 0.020407 
.......... -> Normalized residual = 0.01991 
.......... -> Normalized residual = 0.0194209 
.......... -> Normalized residual = 0.0189382 
.......... -> Normalized residual = 0.0184625 
.......... -> Normalized residual = 0.017996 
.......... -> Normalized residual = 0.0175399 
.......... -> Normalized residual = 0.0170957 
.......... -> Normalized residual = 0.0166653 
.......... -> Normalized residual = 0.0162508 
.......... -> Normalized residual = 0.0158537 
.......... -> Normalized residual = 0.0154759 
.......... -> Normalized residual = 0.0151182 
.......... -> Normalized residual = 0.0147808 
.......... -> Normalized residual = 0.0144635 
.......... -> Normalized residual = 0.0141658 
.......... -> Normalized residual = 0.0138867 
.......... -> Normalized residual = 0.0136247 
.......... -> Normalized residual = 0.0133786 
.......... -> Normalized residual = 0.0131466 
.......... -> Normalized residual = 0.0129274 
.......... -> Normalized residual = 0.0127195 
.......... -> Normalized residual = 0.0125216 
.......... -> Normalized residual = 0.0123327 
.......... -> Normalized residual = 0.0121518 
.......... -> Normalized residual = 0.0119781 
.......... -> Normalized residual = 0.0118108 
.......... -> Normalized residual = 0.0116496 
.......... -> Normalized residual = 0.0114941 
.......... -> Normalized residual = 0.0113439 
.......... -> Normalized residual = 0.0111988 
.......... -> Normalized residual = 0.0110585 
.......... -> Normalized residual = 0.0109229 
.......... -> Normalized residual = 0.0107918 
.......... -> Normalized residual = 0.0106652 
.......... -> Normalized residual = 0.0105428 
.......... -> Normalized residual = 0.0104246 
.......... -> Normalized residual = 0.0103105 
.......... -> Normalized residual = 0.0102002 
.......... -> Normalized residual = 0.0100937 
.......... -> Normalized residual = 0.00999068 
.......... -> Normalized residual = 0.00989105 
.......... -> Normalized residual = 0.00979462 
.......... -> Normalized residual = 0.00970122 
.......... -> Normalized residual = 0.0096107 
.......... -> Normalized residual = 0.00952288 
.......... -> Normalized residual = 0.0094376 
.......... -> Normalized residual = 0.0093547 
.......... -> Normalized residual = 0.00927404 
.......... -> Normalized residual = 0.00919547 

FMG: FAS reached maximum iterations. 
 Normalized residual = 0.00919547 

FMG: Finished work on level = 4
FMG: Interpolate solution on next level ... done

FMG: Converge FAS on level 3 [eps = 0.001000, max-iter=400]
.......... -> Normalized residual = 0.343588 
.......... -> Normalized residual = 0.0931002 
.......... -> Normalized residual = 0.0577604 
.......... -> Normalized residual = 0.0298688 
.......... -> Normalized residual = 0.0287339 
.......... -> Normalized residual = 0.0255492 
.......... -> Normalized residual = 0.0229317 
.......... -> Normalized residual = 0.0204461 
.......... -> Normalized residual = 0.0199041 
.......... -> Normalized residual = 0.020901 
.......... -> Normalized residual = 0.0221491 
.......... -> Normalized residual = 0.0226504 
.......... -> Normalized residual = 0.0223872 
.......... -> Normalized residual = 0.0216235 
.......... -> Normalized residual = 0.0206514 
.......... -> Normalized residual = 0.0196881 
.......... -> Normalized residual = 0.0188391 
.......... -> Normalized residual = 0.0181336 
.......... -> Normalized residual = 0.0175647 
.......... -> Normalized residual = 0.017101 
.......... -> Normalized residual = 0.0167094 
.......... -> Normalized residual = 0.0163831 
.......... -> Normalized residual = 0.0161056 
.......... -> Normalized residual = 0.0158664 
.......... -> Normalized residual = 0.0156573 
.......... -> Normalized residual = 0.0154728 
.......... -> Normalized residual = 0.0153081 
.......... -> Normalized residual = 0.0151598 
.......... -> Normalized residual = 0.0150239 
.......... -> Normalized residual = 0.0148972 
.......... -> Normalized residual = 0.0147775 
.......... -> Normalized residual = 0.0146632 
.......... -> Normalized residual = 0.0145529 
.......... -> Normalized residual = 0.0144448 
.......... -> Normalized residual = 0.0143411 
.......... -> Normalized residual = 0.0142409 
.......... -> Normalized residual = 0.0141439 
.......... -> Normalized residual = 0.01405 
.......... -> Normalized residual = 0.0139589 
.......... -> Normalized residual = 0.0138712 

FMG: FAS reached maximum iterations. 
 Normalized residual = 0.0138712 

FMG: Finished work on level = 3
FMG: Interpolate solution on next level ... done

FMG: Converge FAS on level 2 [eps = 0.001000, max-iter=200]
.......... -> Normalized residual = 0.276396 
.......... -> Normalized residual = 0.0675017 
.......... -> Normalized residual = 0.0575442 
.......... -> Normalized residual = 0.0410401 
.......... -> Normalized residual = 0.0277832 
.......... -> Normalized residual = 0.0198365 
.......... -> Normalized residual = 0.014482 
.......... -> Normalized residual = 0.0126493 
.......... -> Normalized residual = 0.0116522 
.......... -> Normalized residual = 0.0113345 
.......... -> Normalized residual = 0.0108371 
.......... -> Normalized residual = 0.0103132 
.......... -> Normalized residual = 0.0100019 
.......... -> Normalized residual = 0.00977166 
.......... -> Normalized residual = 0.00954525 
.......... -> Normalized residual = 0.00933949 
.......... -> Normalized residual = 0.00916024 
.......... -> Normalized residual = 0.00899578 
.......... -> Normalized residual = 0.00884723 
.......... -> Normalized residual = 0.00871705 

FMG: FAS reached maximum iterations. 
 Normalized residual = 0.00871705 

FMG: Finished work on level = 2
FMG: Interpolate solution on next level ... done

FMG: Converge FAS on level 1 [eps = 0.001000, max-iter=100]
.......... -> Normalized residual = 0.408333 
.......... -> Normalized residual = 0.559647 
.......... -> Normalized residual = 0.336082 
.......... -> Normalized residual = 0.197355 
.......... -> Normalized residual = 0.187869 
.......... -> Normalized residual = 0.159713 
.......... -> Normalized residual = 0.128504 
.......... -> Normalized residual = 0.110801 
.......... -> Normalized residual = 0.110921 
.......... -> Normalized residual = 0.105747 

FMG: FAS reached maximum iterations. 
 Normalized residual = 0.105747 

FMG: Finished work on level = 1
FMG: Interpolate solution on next level ... done
0.->1.->2.->3.->4.->5.<<<<<

/solve/initialize> (cx-gui-do cx-set-integer-entry "Ribbon*Frame1*Frame5(Solution)*Table1*Table3(Run Calculation)*Table6*IntegerEntry16(No  of Iterations)" 500)
(cx-gui-do cx-activate-item "Ribbon*Frame1*Frame5(Solution)*Table1*Table3(Run Calculation)*Table6*IntegerEntry16(No  of Iterations)")
(cx-gui-do cx-activate-item "MenuBar*WriteSubMenu*Case & Data...")
(cx-gui-do cx-set-file-dialog-entries "Select File" '( "Wedge-initial-AstroStan.cas.h5") "CFF Case/Data Files (*.cas.h5 *.dat.h5 )")
Fast-loading "C:\PROGRA~1\ANSYSI~1\ANSYSS~1\v251\fluent\fluent25.1.0\\addons\afd\lib\hdfio.bin"
Done.

Writing to STANISLAW:"C:/Users/somst/Documents/FEA & CFD/FEA---CFD/CFD/ANSYS Fluent/Training/Ansys Courses/Shock-Expansion Theory/Wedge vs Cone Simulation/Wedge-initial-AstroStan.cas.h5" in NODE0 mode and compression level 1 ...
Grouping cells for Laplace smoothing ...
       59800 cells,     1 zone  ...
      120090 faces,     6 zones ...
       60291 nodes,     1 zone  ...
  Done.
Done.

Writing to STANISLAW:"C:/Users/somst/Documents/FEA & CFD/FEA---CFD/CFD/ANSYS Fluent/Training/Ansys Courses/Shock-Expansion Theory/Wedge vs Cone Simulation/Wedge-initial-AstroStan.dat.h5" in NODE0 mode and compression level 1 ...
  Writing results.
Done.
(cx-gui-do cx-activate-item "Ribbon*Frame1*Frame5(Solution)*Table1*Table3(Run Calculation)*PushButton8(Calculate)")

(cx-gui-do cx-activate-item "Question*OK")
Creating new file C:\Users\somst\Documents\FEA & CFD\FEA---CFD\CFD\ANSYS Fluent\Training\Ansys Courses\Shock-Expansion Theory\Wedge vs Cone Simulation\.\\wall-pressure-rfile_1_1.out

  iter  continuity  x-velocity  y-velocity      energy           k       omega     time/iter
     1  1.0000e+00  1.0000e+00  1.0000e+00  1.0000e+00  3.7115e-01  2.6517e-01  0:00:49  499
     2  8.1214e-01  7.5089e-01  3.9118e-01  8.4994e-01  2.4480e-01  2.1518e-01  0:01:21  498
     3  6.0971e-01  4.8617e-01  2.5223e-01  6.4104e-01  1.8943e-01  1.5980e-01  0:01:16  497
     4  4.1544e-01  3.0271e-01  2.3582e-01  4.3727e-01  1.5927e-01  1.1396e-01  0:01:12  496
     5  2.9682e-01  1.8140e-01  1.9603e-01  3.1231e-01  1.1116e-01  8.7885e-02  0:01:08  495
     6  2.3286e-01  1.0666e-01  1.5622e-01  2.4330e-01  7.5043e-02  6.8637e-02  0:01:07  494
     7  1.9091e-01  6.2020e-02  1.2560e-01  1.9744e-01  5.3091e-02  5.4695e-02  0:01:05  493
     8  1.5282e-01  3.6370e-02  1.0056e-01  1.5663e-01  3.8577e-02  4.4252e-02  0:01:07  492
     9  1.1424e-01  2.2982e-02  7.2378e-02  1.1629e-01  2.9117e-02  3.6453e-02  0:01:11  491
    10  7.9555e-02  1.6414e-02  4.1682e-02  8.0552e-02  2.2010e-02  3.0581e-02  0:01:12  490
    11  5.5354e-02  1.3447e-02  2.0715e-02  5.5682e-02  1.7116e-02  2.6030e-02  0:01:09  489

  iter  continuity  x-velocity  y-velocity      energy           k       omega     time/iter
    12  3.8602e-02  1.1909e-02  1.8107e-02  3.8506e-02  1.3461e-02  2.2413e-02  0:01:15  488
    13  2.9538e-02  1.1096e-02  1.7241e-02  2.9127e-02  1.0671e-02  1.9488e-02  0:01:18  487
    14  2.6272e-02  1.0553e-02  1.5426e-02  2.5636e-02  8.5861e-03  1.7121e-02  0:01:20  486
    15  2.5463e-02  1.0124e-02  1.3799e-02  2.4736e-02  6.8640e-03  1.5134e-02  0:01:17  485
    16  2.5251e-02  9.8060e-03  1.2455e-02  2.4480e-02  5.5359e-03  1.3474e-02  0:01:13  484
    17  2.4953e-02  9.4370e-03  1.0607e-02  2.4150e-02  4.5085e-03  1.2076e-02  0:01:10  483
    18  2.4041e-02  9.0285e-03  8.8820e-03  2.3221e-02  3.6987e-03  1.0889e-02  0:01:06  482
    19  2.2633e-02  8.6411e-03  7.6438e-03  2.1813e-02  3.0530e-03  9.8745e-03  0:01:04  481
    20  2.0800e-02  8.2788e-03  6.7648e-03  1.9989e-02  2.5369e-03  9.0001e-03  0:01:03  480
    21  1.8739e-02  7.9363e-03  6.2342e-03  1.7947e-02  2.1127e-03  8.2315e-03  0:01:02  479
    22  1.6616e-02  7.5945e-03  5.9286e-03  1.5844e-02  1.7708e-03  7.5571e-03  0:01:03  478

  iter  continuity  x-velocity  y-velocity      energy           k       omega     time/iter
    23  1.4621e-02  7.3064e-03  5.7618e-03  1.3869e-02  1.4916e-03  6.9519e-03  0:01:05  477
    24  1.2836e-02  6.9960e-03  5.5692e-03  1.2097e-02  1.2613e-03  6.4035e-03  0:01:04  476
    25  1.1352e-02  6.6371e-03  5.1872e-03  1.0624e-02  1.0722e-03  5.9047e-03  0:01:02  475
    26  1.0215e-02  6.3003e-03  4.8164e-03  9.4867e-03  9.1734e-04  5.4469e-03  0:01:02  474
    27  9.3682e-03  5.9624e-03  4.5349e-03  8.6440e-03  7.9315e-04  5.0265e-03  0:01:01  473
    28  8.7154e-03  5.6378e-03  4.2662e-03  7.9872e-03  7.3469e-04  4.5530e-03  0:00:59  472
    29  8.1911e-03  5.3889e-03  4.0577e-03  7.4689e-03  6.2601e-04  4.2289e-03  0:00:59  471
    30  7.7740e-03  5.1386e-03  3.8385e-03  7.0502e-03  5.8045e-04  3.8608e-03  0:01:00  470
    31  7.4289e-03  4.9303e-03  3.6378e-03  6.7124e-03  5.3490e-04  3.5950e-03  0:01:00  469
    32  7.1109e-03  4.7608e-03  3.4643e-03  6.3973e-03  4.6168e-04  3.3716e-03  0:00:59  468
    33  6.8156e-03  4.5317e-03  3.2734e-03  6.1092e-03  4.2281e-04  3.0959e-03  0:00:58  467

  iter  continuity  x-velocity  y-velocity      energy           k       omega     time/iter
    34  6.5512e-03  4.3167e-03  3.1179e-03  5.8526e-03  3.8890e-04  2.8612e-03  0:00:59  466
    35  6.3106e-03  4.1013e-03  2.9625e-03  5.6267e-03  3.5824e-04  2.6500e-03  0:01:00  465
    36  6.0954e-03  3.9838e-03  2.8200e-03  5.4270e-03  3.3112e-04  2.4656e-03  0:01:01  464
    37  5.9066e-03  3.8768e-03  2.6927e-03  5.2526e-03  3.0741e-04  2.3021e-03  0:01:01  463
    38  5.7282e-03  3.7529e-03  2.5660e-03  5.0947e-03  2.8645e-04  2.1496e-03  0:01:01  462
    39  5.5343e-03  3.5395e-03  2.4270e-03  4.9130e-03  2.6844e-04  2.0050e-03  0:01:01  461
    40  5.3280e-03  3.3310e-03  2.2903e-03  4.7304e-03  2.5305e-04  1.8744e-03  0:00:59  460
    41  5.1393e-03  3.1242e-03  2.1589e-03  4.5588e-03  2.3956e-04  1.7530e-03  0:00:58  459
    42  4.9462e-03  2.9389e-03  2.0264e-03  4.3888e-03  2.2751e-04  1.6465e-03  0:00:57  458
    43  4.7705e-03  2.7599e-03  1.9088e-03  4.2351e-03  2.1614e-04  1.5451e-03  0:00:56  457
    44  4.6148e-03  2.5974e-03  1.7850e-03  4.1060e-03  2.0507e-04  1.4603e-03  0:00:56  456

  iter  continuity  x-velocity  y-velocity      energy           k       omega     time/iter
    45  4.4771e-03  2.4467e-03  1.6709e-03  3.9917e-03  1.9352e-04  1.3574e-03  0:00:55  455
    46  4.3365e-03  2.3097e-03  1.5656e-03  3.8769e-03  1.8182e-04  1.2659e-03  0:00:57  454
    47  4.2070e-03  2.1851e-03  1.4798e-03  3.7689e-03  1.7046e-04  1.1814e-03  0:00:58  453
    48  4.0755e-03  2.0706e-03  1.3855e-03  3.6616e-03  1.5952e-04  1.1129e-03  0:00:58  452
    49  3.9595e-03  1.9670e-03  1.2999e-03  3.5649e-03  1.4837e-04  1.0519e-03  0:00:58  451
    50  3.8445e-03  1.8734e-03  1.2588e-03  3.4727e-03  1.3767e-04  9.9898e-04  0:00:57  450
    51  3.7463e-03  1.8020e-03  1.1853e-03  3.3920e-03  1.2852e-04  9.4646e-04  0:00:57  449
    52  3.6533e-03  1.9384e-03  1.1223e-03  3.3188e-03  1.2033e-04  9.0449e-04  0:00:56  448
    53  3.5887e-03  1.9513e-03  1.0713e-03  3.2680e-03  1.1280e-04  8.5888e-04  0:00:57  447
    54  3.5287e-03  1.8249e-03  1.0240e-03  3.2306e-03  1.0572e-04  8.2335e-04  0:00:59  446
    55  3.4733e-03  1.7621e-03  9.7814e-04  3.1861e-03  9.9399e-05  7.8712e-04  0:00:59  445

  iter  continuity  x-velocity  y-velocity      energy           k       omega     time/iter
    56  3.3895e-03  1.6840e-03  9.2937e-04  3.1190e-03  9.3454e-05  7.4549e-04  0:00:58  444
    57  3.3178e-03  1.6289e-03  9.0035e-04  3.0581e-03  8.8388e-05  7.0771e-04  0:00:58  443
    58  3.2316e-03  1.5713e-03  8.6328e-04  2.9824e-03  8.3572e-05  6.7463e-04  0:00:57  442
    59  3.1279e-03  1.4686e-03  8.7577e-04  2.8756e-03  7.9426e-05  6.4204e-04  0:00:56  441
    60  3.0800e-03  1.3835e-03  8.7489e-04  2.8272e-03  7.5436e-05  6.1381e-04  0:00:56  440
    61  3.0622e-03  1.3196e-03  8.5165e-04  2.8100e-03  7.1927e-05  5.8542e-04  0:00:56  439
    62  3.0410e-03  1.2780e-03  8.2468e-04  2.7959e-03  6.8560e-05  5.6248e-04  0:00:57  438
    63  3.0240e-03  1.2445e-03  7.9885e-04  2.7834e-03  6.5528e-05  5.3792e-04  0:00:57  437
    64  2.9991e-03  1.2229e-03  7.7105e-04  2.7655e-03  6.2475e-05  5.1249e-04  0:00:56  436
    65  2.9773e-03  1.2000e-03  7.4146e-04  2.7470e-03  5.9694e-05  4.8744e-04  0:00:55  435
    66  2.9472e-03  1.1846e-03  7.1803e-04  2.7225e-03  5.6951e-05  4.6602e-04  0:00:55  434

  iter  continuity  x-velocity  y-velocity      energy           k       omega     time/iter
    67  2.9131e-03  1.1629e-03  6.8506e-04  2.6910e-03  5.4413e-05  4.4433e-04  0:00:55  433
    68  2.8687e-03  1.1466e-03  6.5879e-04  2.6516e-03  5.2937e-05  4.7219e-04  0:00:54  432
    69  2.8248e-03  1.1202e-03  6.2909e-04  2.6100e-03  5.4207e-05  4.5494e-04  0:00:55  431
    70  2.7738e-03  1.1019e-03  6.0275e-04  2.5647e-03  4.9544e-05  4.2198e-04  0:00:56  430
    71  2.7271e-03  1.0786e-03  5.8404e-04  2.5210e-03  4.5762e-05  3.9139e-04  0:00:56  429
    72  2.6784e-03  1.0630e-03  5.6662e-04  2.4777e-03  4.2535e-05  3.6960e-04  0:00:56  428
    73  2.6394e-03  1.0434e-03  5.5587e-04  2.4408e-03  3.9913e-05  3.4916e-04  0:00:55  427
    74  2.6022e-03  1.0326e-03  5.4136e-04  2.4079e-03  3.7617e-05  3.3279e-04  0:00:54  426
    75  2.5732e-03  1.0171e-03  5.2058e-04  2.3802e-03  3.5706e-05  3.1697e-04  0:00:54  425
    76  2.5428e-03  1.0089e-03  5.1101e-04  2.3534e-03  3.3964e-05  3.0386e-04  0:00:54  424
    77  2.5184e-03  9.9525e-04  5.0847e-04  2.3301e-03  3.2436e-05  2.8973e-04  0:00:54  423

  iter  continuity  x-velocity  y-velocity      energy           k       omega     time/iter
    78  2.4900e-03  9.8811e-04  4.9588e-04  2.3050e-03  3.1379e-05  2.9612e-04  0:00:54  422
    79  2.4679e-03  9.7428e-04  4.8442e-04  2.2837e-03  3.1075e-05  2.7214e-04  0:00:54  421
    80  2.4429e-03  9.6779e-04  4.7236e-04  2.2623e-03  2.8480e-05  2.5494e-04  0:00:54  420
    81  2.4275e-03  9.5718e-04  4.6970e-04  2.2480e-03  2.6449e-05  2.4108e-04  0:00:53  419
    82  2.4092e-03  9.5350e-04  4.5664e-04  2.2331e-03  2.4743e-05  2.3063e-04  0:00:54  418
    83  2.3941e-03  1.2877e-03  4.5256e-04  2.2188e-03  2.3648e-05  2.2058e-04  0:00:54  417
    84  2.3781e-03  1.2991e-03  4.5194e-04  2.2070e-03  2.2430e-05  2.1218e-04  0:00:53  416
    85  2.3665e-03  1.2022e-03  4.5080e-04  2.1937e-03  2.1270e-05  1.9931e-04  0:00:55  415
    86  2.3429e-03  1.2121e-03  4.3417e-04  2.1752e-03  2.0517e-05  2.0121e-04  0:00:54  414
    87  2.3318e-03  1.2014e-03  4.3536e-04  2.1629e-03  2.0134e-05  1.8544e-04  0:01:24  413
    88  2.3103e-03  1.1914e-03  4.2278e-04  2.1470e-03  1.8396e-05  1.7520e-04  0:01:17  412

  iter  continuity  x-velocity  y-velocity      energy           k       omega     time/iter
    89  2.3029e-03  1.1964e-03  4.2158e-04  2.1386e-03  1.7021e-05  1.6402e-04  0:01:12  411
    90  2.2849e-03  1.1838e-03  4.0856e-04  2.1258e-03  1.5912e-05  1.5650e-04  0:01:10  410
    91  2.2788e-03  1.1908e-03  4.1505e-04  2.1186e-03  1.4995e-05  1.4641e-04  0:01:07  409
    92  2.2608e-03  1.1785e-03  4.0454e-04  2.1056e-03  1.4236e-05  1.3970e-04  0:01:04  408
    93  2.2527e-03  1.1847e-03  4.1059e-04  2.0963e-03  1.3543e-05  1.3022e-04  0:01:01  407
    94  2.2322e-03  1.1728e-03  3.9466e-04  2.0808e-03  1.3112e-05  1.3144e-04  0:01:00  406
    95  2.2224e-03  1.1782e-03  3.9896e-04  2.0699e-03  1.2474e-05  1.2240e-04  0:00:59  405
    96  2.2019e-03  1.1669e-03  3.8346e-04  2.0544e-03  1.2017e-05  1.2156e-04  0:01:01  404
    97  2.1932e-03  1.1727e-03  3.8133e-04  2.0447e-03  1.2169e-05  1.2509e-04  0:01:01  403
    98  2.1723e-03  1.1608e-03  3.6598e-04  2.0289e-03  1.2760e-05  1.3674e-04  0:01:01  402
    99  2.1609e-03  1.1653e-03  3.6953e-04  2.0169e-03  1.2775e-05  1.2268e-04  0:01:03  401

  iter  continuity  x-velocity  y-velocity      energy           k       omega     time/iter
   100  2.1379e-03  1.1535e-03  3.5903e-04  1.9993e-03  1.2289e-05  1.0989e-04  0:01:01  400
   101  2.1258e-03  1.1568e-03  3.6388e-04  1.9865e-03  1.0079e-05  9.5137e-05  0:00:59  399
   102  2.1031e-03  1.1463e-03  3.5390e-04  1.9691e-03  8.3465e-06  8.9317e-05  0:00:57  398
   103  2.0934e-03  1.1510e-03  3.6219e-04  1.9585e-03  7.0301e-06  7.6849e-05  0:00:57  397
   104  2.0724e-03  1.1424e-03  3.6129e-04  1.9420e-03  1.7302e-05  6.5883e-05  0:00:56  396
   105  2.0624e-03  1.1492e-03  3.7488e-04  1.9299e-03  1.4896e-05  5.9558e-05  0:00:56  395
   106  2.0426e-03  1.1396e-03  3.6150e-04  1.9135e-03  1.3426e-05  5.6616e-05  0:00:54  394
   107  2.0332e-03  1.1443e-03  3.6553e-04  1.9018e-03  1.1741e-05  5.3484e-05  0:00:53  393
   108  2.0127e-03  1.1362e-03  3.6384e-04  1.8850e-03  1.0274e-05  5.3157e-05  0:00:52  392
   109  2.0009e-03  1.1399e-03  3.5989e-04  1.8715e-03  9.0933e-06  5.4809e-05  0:00:51  391
   110  1.9789e-03  1.1310e-03  3.4439e-04  1.8539e-03  8.4106e-06  5.7886e-05  0:00:49  390

  iter  continuity  x-velocity  y-velocity      energy           k       omega     time/iter
   111  1.9673e-03  1.1355e-03  3.4406e-04  1.8412e-03  8.2934e-06  5.1437e-05  0:00:49  389
   112  1.9462e-03  1.1252e-03  3.2769e-04  1.8247e-03  7.7221e-06  4.6106e-05  0:00:50  388
   113  1.9321e-03  1.0196e-03  3.2140e-04  1.8100e-03  7.0737e-06  3.9042e-05  0:00:52  387
   114  1.9143e-03  7.2300e-04  3.1134e-04  1.7958e-03  7.3305e-06  3.5394e-05  0:00:51  386
   115  1.9019e-03  9.5262e-04  2.9959e-04  1.7852e-03  5.5628e-06  3.5067e-05  0:00:49  385
   116  1.8907e-03  7.4616e-04  3.0402e-04  1.7746e-03  5.1133e-06  3.5423e-05  0:00:49  384
   117  1.8742e-03  8.4783e-04  2.8375e-04  1.7605e-03  5.2426e-06  3.1647e-05  0:00:48  383
   118  1.8646e-03  7.7553e-04  2.9447e-04  1.7515e-03  5.3896e-06  2.8715e-05  0:00:47  382
   119  1.8490e-03  8.1919e-04  2.7948e-04  1.7385e-03  5.4605e-06  2.7836e-05  0:00:47  381
   120  1.8389e-03  7.8032e-04  2.8287e-04  1.7291e-03  5.4248e-06  2.5223e-05  0:00:47  380
   121  1.8216e-03  1.1745e-03  2.7316e-04  1.7144e-03  3.8503e-06  2.4814e-05  0:00:46  379

  iter  continuity  x-velocity  y-velocity      energy           k       omega     time/iter
   122  1.8147e-03  1.2308e-03  2.8924e-04  1.7067e-03  3.4037e-06  2.1901e-05  0:00:46  378
   123  1.7993e-03  1.0669e-03  2.7799e-04  1.6948e-03  3.7538e-06  2.1739e-05  0:00:46  377
   124  1.7906e-03  9.6129e-04  2.7201e-04  1.6853e-03  3.8519e-06  1.8724e-05  0:00:46  376
   125  1.7778e-03  8.5516e-04  2.7208e-04  1.6754e-03  2.5195e-06  1.6561e-05  0:00:45  375
   126  1.7714e-03  7.8458e-04  2.7621e-04  1.6696e-03  2.7903e-06  1.6787e-05  0:00:45  374
   127  1.7588e-03  7.9518e-04  2.6371e-04  1.6587e-03  3.1010e-06  1.5726e-05  0:00:45  373
   128  1.7473e-03  7.6987e-04  2.6313e-04  1.6477e-03  3.4493e-06  1.5649e-05  0:00:50  372
   129  1.7335e-03  7.8442e-04  2.6257e-04  1.6358e-03  3.5065e-06  1.4900e-05  0:00:52  371
   130  1.7233e-03  7.6529e-04  2.6244e-04  1.6260e-03  3.5866e-06  1.4545e-05  0:00:50  370
   131  1.7099e-03  1.1513e-03  2.5996e-04  1.6144e-03  3.8134e-06  1.6368e-05  0:00:49  369
   132  1.7040e-03  1.2172e-03  2.6692e-04  1.6077e-03  3.7925e-06  1.4536e-05  0:00:49  368

  iter  continuity  x-velocity  y-velocity      energy           k       omega     time/iter
   133  1.6948e-03  1.0482e-03  2.6624e-04  1.6009e-03  3.5501e-06  1.5340e-05  0:00:48  367
   134  1.6861e-03  9.4865e-04  2.5069e-04  1.5917e-03  3.2211e-06  1.2559e-05  0:00:47  366
   135  1.6740e-03  8.3480e-04  2.5097e-04  1.5820e-03  2.9252e-06  1.2862e-05  0:00:47  365
   136  1.6682e-03  7.6709e-04  2.5337e-04  1.5765e-03  2.8468e-06  1.3668e-05  0:00:47  364
   137  1.6617e-03  7.7521e-04  2.4581e-04  1.5710e-03  2.4835e-06  1.2792e-05  0:00:46  363
   138  1.6527e-03  7.5358e-04  2.4525e-04  1.5622e-03  2.3379e-06  1.3108e-05  0:00:46  362
   139  1.6438e-03  1.1318e-03  2.4212e-04  1.5544e-03  2.3261e-06  1.5438e-05  0:00:46  361
   140  1.6415e-03  1.2108e-03  2.5100e-04  1.5512e-03  2.3176e-06  1.4151e-05  0:00:45  360
   141  1.6346e-03  1.0378e-03  2.5332e-04  1.5456e-03  1.9512e-06  1.4694e-05  0:00:44  359
   142  1.6257e-03  9.4159e-04  2.3779e-04  1.5363e-03  1.7052e-06  1.2501e-05  0:00:44  358
   143  1.6134e-03  8.2448e-04  2.3959e-04  1.5259e-03  1.5347e-06  1.2070e-05  0:00:44  357

  iter  continuity  x-velocity  y-velocity      energy           k       omega     time/iter
   144  1.6054e-03  7.5550e-04  2.4501e-04  1.5182e-03  1.5824e-06  1.2661e-05  0:00:45  356
   145  1.5961e-03  7.6343e-04  2.3608e-04  1.5098e-03  1.3521e-06  1.1604e-05  0:00:44  355
   146  1.5871e-03  7.4128e-04  2.3548e-04  1.5010e-03  1.3335e-06  1.2442e-05  0:00:44  354
   147  1.5771e-03  1.1237e-03  2.3213e-04  1.4918e-03  1.4596e-06  1.4441e-05  0:00:44  353
   148  1.5747e-03  1.2026e-03  2.4141e-04  1.4887e-03  1.3733e-06  1.3240e-05  0:00:44  352
   149  1.5718e-03  1.0308e-03  2.4282e-04  1.4866e-03  1.1647e-06  1.3586e-05  0:00:43  351
   150  1.5665e-03  9.3375e-04  2.2682e-04  1.4808e-03  8.7677e-07  1.1196e-05  0:00:43  350
   151  1.5565e-03  8.1584e-04  2.2994e-04  1.4722e-03  7.0543e-07  1.0836e-05  0:00:43  349
   152  1.5522e-03  7.4718e-04  2.3473e-04  1.4680e-03  7.6508e-07  1.1629e-05  0:00:43  348
   153  1.5478e-03  1.0827e-03  2.2445e-04  1.4639e-03  9.2489e-07  1.3345e-05  0:00:42  347
   154  1.5455e-03  1.2018e-03  2.2985e-04  1.4608e-03  9.4234e-07  1.2873e-05  0:00:42  346

  iter  continuity  x-velocity  y-velocity      energy           k       omega     time/iter
   155  1.5427e-03  1.0209e-03  2.3718e-04  1.4583e-03  8.0755e-07  1.2763e-05  0:00:43  345
   156  1.5383e-03  9.3469e-04  2.2236e-04  1.4535e-03  6.2236e-07  1.0690e-05  0:00:46  344
   157  1.5298e-03  8.1368e-04  2.2602e-04  1.4462e-03  5.2682e-07  1.0078e-05  0:00:45  343
   158  1.5231e-03  7.4289e-04  2.2865e-04  1.4398e-03  6.6462e-07  1.1272e-05  0:00:44  342
   159  1.5163e-03  1.0780e-03  2.1737e-04  1.4334e-03  8.7785e-07  1.2528e-05  0:00:43  341
   160  1.5138e-03  1.1988e-03  2.2508e-04  1.4302e-03  9.1879e-07  1.2636e-05  0:00:44  340
   161  1.5109e-03  1.0167e-03  2.3046e-04  1.4275e-03  7.9318e-07  1.1672e-05  0:00:43  339
   162  1.5031e-03  9.2953e-04  2.1507e-04  1.4197e-03  6.0958e-07  1.0530e-05  0:00:43  338
   163  1.4911e-03  8.0726e-04  2.1822e-04  1.4090e-03  5.0252e-07  9.7769e-06  0:00:42  337
   164  1.4851e-03  7.3579e-04  2.2228e-04  1.4034e-03  6.3105e-07  1.1006e-05  0:00:42  336
   165  1.4785e-03  1.0733e-03  2.1185e-04  1.3973e-03  8.3500e-07  1.2742e-05  0:00:43  335

  iter  continuity  x-velocity  y-velocity      energy           k       omega     time/iter
   166  1.4762e-03  1.1948e-03  2.2110e-04  1.3945e-03  8.6852e-07  1.2189e-05  0:00:42  334
   167  1.4741e-03  1.0121e-03  2.2486e-04  1.3925e-03  7.3380e-07  1.1774e-05  0:00:41  333
   168  1.4695e-03  9.2509e-04  2.0846e-04  1.3877e-03  5.5025e-07  1.0304e-05  0:00:42  332
   169  1.4638e-03  8.0353e-04  2.1033e-04  1.3828e-03  4.3689e-07  9.8910e-06  0:00:41  331
   170  1.4638e-03  7.3293e-04  2.1484e-04  1.3828e-03  5.6728e-07  1.1748e-05  0:00:41  330
   171  1.4633e-03  1.0721e-03  2.0593e-04  1.3823e-03  1.7792e-06  6.0378e-05  0:00:41  329
   172  1.4622e-03  1.1939e-03  2.1610e-04  1.3805e-03  1.7510e-06  5.7201e-05  0:00:40  328
   173  1.4592e-03  1.0107e-03  2.2129e-04  1.3774e-03  1.2795e-06  4.3365e-05  0:00:40  327
   174  1.4550e-03  9.2351e-04  2.0738e-04  1.3731e-03  8.4080e-07  3.1156e-05  0:00:39  326
   175  1.4450e-03  8.0099e-04  2.0683e-04  1.3642e-03  5.8079e-07  2.2982e-05  0:00:39  325
   176  1.4418e-03  7.2929e-04  2.1186e-04  1.3612e-03  6.5626e-07  2.0597e-05  0:01:02  324

  iter  continuity  x-velocity  y-velocity      energy           k       omega     time/iter
   177  1.4355e-03  1.0691e-03  2.0023e-04  1.3553e-03  7.8793e-07  1.9120e-05  0:00:57  323
   178  1.4338e-03  8.3573e-04  2.1227e-04  1.3531e-03  6.3801e-07  2.2641e-05  0:00:54  322
   179  1.4236e-03  7.7529e-04  1.9582e-04  1.3436e-03  7.1288e-07  3.4070e-05  0:00:50  321
   180  1.4184e-03  7.2268e-04  2.0825e-04  1.3388e-03  1.2302e-06  5.2182e-05  0:00:48  320
   181  1.4130e-03  1.0711e-03  1.9741e-04  1.3336e-03  1.2567e-06  4.4093e-05  0:00:46  319
   182  1.4133e-03  1.2001e-03  2.0971e-04  1.3335e-03  1.1907e-06  3.6700e-05  0:00:44  318
   183  1.4131e-03  1.0009e-03  2.1400e-04  1.3330e-03  8.4560e-07  2.7528e-05  0:00:43  317
   184  1.4099e-03  9.1858e-04  1.9649e-04  1.3298e-03  5.7893e-07  2.0079e-05  0:00:42  316
   185  1.4026e-03  7.9301e-04  2.0019e-04  1.3234e-03  3.9102e-07  1.5011e-05  0:00:41  315
   186  1.3994e-03  7.2411e-04  2.0455e-04  1.3203e-03  4.9518e-07  1.4059e-05  0:00:40  314
   187  1.3960e-03  1.0636e-03  1.9436e-04  1.3169e-03  7.1431e-07  1.5988e-05  0:00:39  313

  iter  continuity  x-velocity  y-velocity      energy           k       omega     time/iter
   188  1.4004e-03  8.3243e-04  2.0587e-04  1.3206e-03  4.5016e-07  1.3569e-05  0:00:39  312
   189  1.3952e-03  7.7066e-04  1.9147e-04  1.3158e-03  3.1658e-07  1.2327e-05  0:00:38  311
   190  1.3947e-03  7.2044e-04  2.0665e-04  1.3154e-03  4.8583e-07  1.4074e-05  0:00:38  310
   191  1.3904e-03  1.0688e-03  1.9542e-04  1.3111e-03  6.4936e-07  1.4810e-05  0:00:38  309
   192  1.3891e-03  1.1983e-03  2.0846e-04  1.3094e-03  7.2165e-07  1.4283e-05  0:00:38  308
   193  1.3855e-03  9.9769e-04  2.1461e-04  1.3056e-03  5.6517e-07  1.4324e-05  0:00:38  307
   194  1.3780e-03  9.1484e-04  1.9681e-04  1.2983e-03  4.0548e-07  1.2744e-05  0:00:38  306
   195  1.3687e-03  7.8720e-04  2.0137e-04  1.2899e-03  2.8820e-07  1.1940e-05  0:00:37  305
   196  1.3648e-03  7.1855e-04  2.0608e-04  1.2863e-03  4.3193e-07  1.3494e-05  0:00:37  304
   197  1.3591e-03  1.0593e-03  1.9485e-04  1.2808e-03  6.3870e-07  1.4284e-05  0:00:36  303
   198  1.3579e-03  8.2642e-04  2.0462e-04  1.2793e-03  3.7919e-07  1.2388e-05  0:00:35  302

  iter  continuity  x-velocity  y-velocity      energy           k       omega     time/iter
   199  1.3494e-03  7.6298e-04  1.8948e-04  1.2714e-03  2.5849e-07  1.1799e-05  0:00:35  301
   200  1.3476e-03  7.1276e-04  2.0336e-04  1.2699e-03  4.3596e-07  1.3288e-05  0:00:35  300
   201  1.3469e-03  1.0640e-03  1.9029e-04  1.2692e-03  6.1069e-07  1.4406e-05  0:00:36  299
   202  1.3516e-03  1.1946e-03  2.0464e-04  1.2731e-03  6.8326e-07  1.3941e-05  0:00:37  298
   203  1.3529e-03  9.9409e-04  2.1068e-04  1.2739e-03  5.3451e-07  1.3752e-05  0:00:37  297
   204  1.3502e-03  9.1190e-04  1.9099e-04  1.2713e-03  3.7436e-07  1.2403e-05  0:00:39  296
   205  1.3469e-03  7.8478e-04  1.9420e-04  1.2686e-03  2.6078e-07  1.1587e-05  0:00:39  295
   206  1.3508e-03  7.1776e-04  2.0093e-04  1.2724e-03  4.0332e-07  1.2467e-05  0:00:38  294
   207  1.3520e-03  1.0596e-03  1.9199e-04  1.2733e-03  6.1474e-07  1.3817e-05  0:00:37  293
   208  1.3525e-03  8.2695e-04  2.0335e-04  1.2732e-03  3.5231e-07  1.2113e-05  0:00:37  292
   209  1.3429e-03  7.6281e-04  1.8905e-04  1.2640e-03  2.3526e-07  1.1265e-05  0:00:38  291

  iter  continuity  x-velocity  y-velocity      energy           k       omega     time/iter
   210  1.3343e-03  7.1125e-04  2.0173e-04  1.2559e-03  4.1008e-07  1.3029e-05  0:00:38  290
   211  1.3303e-03  1.0623e-03  1.9044e-04  1.2520e-03  6.1193e-07  1.4736e-05  0:00:39  289
   212  1.3330e-03  1.1927e-03  2.0307e-04  1.2542e-03  7.4427e-07  1.8329e-05  0:00:38  288
   213  1.3346e-03  9.9206e-04  2.1009e-04  1.2552e-03  5.4468e-07  1.5156e-05  0:00:37  287
   214  1.3282e-03  9.0911e-04  1.9065e-04  1.2492e-03  3.9008e-07  1.4498e-05  0:00:38  286
   215  1.3184e-03  7.8007e-04  1.9362e-04  1.2404e-03  2.7051e-07  1.2386e-05  0:00:37  285
   216  1.3134e-03  7.1127e-04  1.9823e-04  1.2358e-03  4.0294e-07  1.3855e-05  0:00:36  284
   217  1.3116e-03  1.0549e-03  1.8964e-04  1.2340e-03  6.0739e-07  1.4805e-05  0:00:35  283
   218  1.3152e-03  8.2138e-04  2.0022e-04  1.2371e-03  3.3744e-07  1.2798e-05  0:00:35  282
   219  1.3104e-03  7.5802e-04  1.8357e-04  1.2328e-03  2.1893e-07  1.1088e-05  0:00:36  281
   220  1.3114e-03  7.0840e-04  1.9715e-04  1.2339e-03  3.9055e-07  1.2528e-05  0:00:35  280

  iter  continuity  x-velocity  y-velocity      energy           k       omega     time/iter
   221  1.3106e-03  1.0610e-03  1.8456e-04  1.2329e-03  5.6633e-07  1.3880e-05  0:00:34  279
   222  1.3125e-03  1.1909e-03  1.9668e-04  1.2342e-03  6.3591e-07  1.3891e-05  0:00:34  278
   223  1.3179e-03  9.9042e-04  2.0597e-04  1.2387e-03  4.8980e-07  1.3230e-05  0:00:34  277
   224  1.3136e-03  9.0770e-04  1.8815e-04  1.2346e-03  3.2685e-07  1.1454e-05  0:00:33  276
   225  1.3045e-03  7.7825e-04  1.9462e-04  1.2263e-03  2.1373e-07  1.0321e-05  0:00:33  275
   226  1.3009e-03  7.0961e-04  2.0087e-04  1.2231e-03  3.5887e-07  1.1958e-05  0:00:34  274
   227  1.2976e-03  1.0538e-03  1.8904e-04  1.2198e-03  5.7010e-07  1.3144e-05  0:00:34  273
   228  1.2978e-03  8.1926e-04  1.9924e-04  1.2198e-03  3.0751e-07  1.0791e-05  0:00:33  272
   229  1.2876e-03  7.5422e-04  1.8328e-04  1.2101e-03  1.9385e-07  1.0227e-05  0:00:32  271
   230  1.2855e-03  7.0352e-04  1.9719e-04  1.2082e-03  3.6965e-07  1.1760e-05  0:00:32  270
   231  1.2826e-03  1.0576e-03  1.8236e-04  1.2054e-03  5.4739e-07  1.3155e-05  0:00:31  269

  iter  continuity  x-velocity  y-velocity      energy           k       omega     time/iter
   232  1.2843e-03  1.1880e-03  1.9358e-04  1.2067e-03  6.2101e-07  1.2637e-05  0:00:31  268
   233  1.2835e-03  9.8687e-04  2.0108e-04  1.2054e-03  4.7470e-07  1.2452e-05  0:00:31  267
   234  1.2801e-03  9.0390e-04  1.8387e-04  1.2024e-03  3.1296e-07  1.1276e-05  0:00:33  266
   235  1.2738e-03  7.7418e-04  1.8926e-04  1.1969e-03  1.9906e-07  1.0454e-05  0:00:33  265
   236  1.2729e-03  7.0573e-04  1.9508e-04  1.1963e-03  3.4516e-07  1.2193e-05  0:00:32  264
   237  1.2732e-03  1.0515e-03  1.8522e-04  1.1964e-03  5.5381e-07  1.2760e-05  0:00:32  263
   238  1.2762e-03  8.1670e-04  1.9314e-04  1.1989e-03  3.1477e-07  1.1951e-05  0:00:31  262
   239  1.2715e-03  7.5248e-04  1.7672e-04  1.1945e-03  2.6164e-07  1.5454e-05  0:00:31  261
   240  1.2779e-03  7.0357e-04  1.9188e-04  1.2007e-03  5.3329e-07  2.3926e-05  0:00:31  260
   241  1.2795e-03  1.0580e-03  1.8183e-04  1.2020e-03  8.8497e-07  3.5909e-05  0:00:30  259
   242  1.2803e-03  1.1880e-03  1.9572e-04  1.2023e-03  1.2680e-06  5.4110e-05  0:00:30  258

  iter  continuity  x-velocity  y-velocity      energy           k       omega     time/iter
   243  1.2780e-03  9.8633e-04  2.0461e-04  1.1993e-03  1.0445e-06  4.6103e-05  0:00:30  257
   244  1.2680e-03  9.0199e-04  1.8310e-04  1.1899e-03  6.5387e-07  3.5673e-05  0:00:30  256
   245  1.2567e-03  7.7144e-04  1.8667e-04  1.1797e-03  5.3362e-07  3.4982e-05  0:00:30  255
   246  1.2544e-03  7.0273e-04  1.9305e-04  1.1778e-03  5.6438e-07  2.8722e-05  0:00:40  254
   247  1.2526e-03  1.0493e-03  1.8128e-04  1.1760e-03  6.9845e-07  2.6939e-05  0:00:39  253
   248  1.2537e-03  8.1343e-04  1.9130e-04  1.1768e-03  4.0415e-07  2.1889e-05  0:00:38  252
   249  1.2463e-03  7.4815e-04  1.7435e-04  1.1697e-03  2.3833e-07  1.9144e-05  0:00:37  251
   250  1.2434e-03  6.9775e-04  1.8754e-04  1.1672e-03  3.9344e-07  1.9508e-05  0:00:35  250
   251  1.2439e-03  1.0540e-03  1.7827e-04  1.1676e-03  5.6594e-07  2.0317e-05  0:00:34  249
   252  1.2498e-03  1.1851e-03  1.9060e-04  1.1731e-03  6.3207e-07  1.9668e-05  0:00:33  248
   253  1.2527e-03  9.8395e-04  1.9958e-04  1.1751e-03  4.7710e-07  1.9310e-05  0:00:35  247

  iter  continuity  x-velocity  y-velocity      energy           k       omega     time/iter
   254  1.2487e-03  9.0050e-04  1.8006e-04  1.1715e-03  3.1332e-07  1.7578e-05  0:00:36  246
   255  1.2405e-03  7.6944e-04  1.8545e-04  1.1641e-03  1.9655e-07  1.6549e-05  0:00:35  245
   256  1.2405e-03  7.0095e-04  1.9075e-04  1.1642e-03  3.4201e-07  1.7793e-05  0:00:33  244
   257  1.2410e-03  1.0483e-03  1.7877e-04  1.1645e-03  5.5016e-07  1.8633e-05  0:00:32  243
   258  1.2461e-03  8.1284e-04  1.9141e-04  1.1690e-03  2.9276e-07  1.6689e-05  0:00:31  242
   259  1.2380e-03  7.4718e-04  1.7802e-04  1.1612e-03  1.7361e-07  1.5746e-05  0:00:31  241
   260  1.2340e-03  6.9629e-04  1.9233e-04  1.1576e-03  3.5517e-07  1.7771e-05  0:00:30  240
   261  1.2285e-03  1.0522e-03  1.8108e-04  1.1522e-03  5.3077e-07  1.8541e-05  0:00:30  239
   262  1.2296e-03  1.1827e-03  1.9325e-04  1.1530e-03  6.1133e-07  1.9115e-05  0:00:31  238
   263  1.2320e-03  9.8128e-04  2.0215e-04  1.1547e-03  4.6012e-07  1.8694e-05  0:00:49  237
   264  1.2275e-03  8.9763e-04  1.8222e-04  1.1506e-03  3.0227e-07  1.7727e-05  0:00:44  236

  iter  continuity  x-velocity  y-velocity      energy           k       omega     time/iter
   265  1.2207e-03  7.6627e-04  1.8508e-04  1.1445e-03  1.8739e-07  1.6666e-05  0:00:41  235
   266  1.2195e-03  6.9769e-04  1.8803e-04  1.1436e-03  3.3828e-07  1.7951e-05  0:00:38  234
   267  1.2168e-03  1.0457e-03  1.7649e-04  1.1410e-03  5.4682e-07  1.8665e-05  0:00:36  233
   268  1.2188e-03  8.0927e-04  1.8727e-04  1.1427e-03  2.9048e-07  1.5825e-05  0:00:34  232
   269  1.2151e-03  7.4396e-04  1.7437e-04  1.1393e-03  1.7198e-07  1.3516e-05  0:00:33  231
   270  1.2142e-03  6.9384e-04  1.8796e-04  1.1386e-03  3.5434e-07  1.3924e-05  0:00:31  230
   271  1.2119e-03  1.0509e-03  1.7609e-04  1.1363e-03  5.2966e-07  1.4283e-05  0:00:30  229
   272  1.2160e-03  1.1816e-03  1.9014e-04  1.1399e-03  6.1117e-07  1.3861e-05  0:00:30  228
   273  1.2178e-03  9.7987e-04  1.9618e-04  1.1408e-03  4.5993e-07  1.3203e-05  0:00:29  227
   274  1.2145e-03  8.9636e-04  1.7426e-04  1.1379e-03  3.0247e-07  1.1721e-05  0:00:30  226
   275  1.2114e-03  7.6505e-04  1.8085e-04  1.1353e-03  1.8655e-07  1.0568e-05  0:00:34  225

  iter  continuity  x-velocity  y-velocity      energy           k       omega     time/iter
   276  1.2117e-03  6.9667e-04  1.8829e-04  1.1357e-03  3.3599e-07  1.1961e-05  0:00:33  224
   277  1.2081e-03  1.0447e-03  1.7832e-04  1.1320e-03  5.4205e-07  1.2992e-05  0:00:32  223
   278  1.2035e-03  8.0667e-04  1.8848e-04  1.1274e-03  2.8486e-07  1.0964e-05  0:00:30  222
   279  1.1943e-03  7.4004e-04  1.7319e-04  1.1187e-03  1.6501e-07  1.0172e-05  0:00:30  221
   280  1.1938e-03  6.9009e-04  1.8723e-04  1.1186e-03  3.4635e-07  1.1849e-05  0:00:29  220
   281  1.1945e-03  1.0490e-03  1.7416e-04  1.1190e-03  5.2004e-07  1.2835e-05  0:00:28  219
   282  1.1989e-03  1.1799e-03  1.8478e-04  1.1230e-03  6.0078e-07  1.2816e-05  0:00:28  218
   283  1.2001e-03  9.7789e-04  1.9261e-04  1.1234e-03  4.4876e-07  1.2157e-05  0:00:28  217
   284  1.1926e-03  8.9356e-04  1.7064e-04  1.1166e-03  2.9084e-07  1.0838e-05  0:00:27  216
   285  1.1842e-03  7.6095e-04  1.7694e-04  1.1090e-03  1.7625e-07  9.7889e-06  0:00:27  215
   286  1.1861e-03  6.9267e-04  1.8396e-04  1.1112e-03  3.2340e-07  1.1240e-05  0:00:27  214

  iter  continuity  x-velocity  y-velocity      energy           k       omega     time/iter
   287  1.1845e-03  1.0425e-03  1.7398e-04  1.1096e-03  5.3151e-07  1.2308e-05  0:00:26  213
   288  1.1871e-03  8.0509e-04  1.8447e-04  1.1119e-03  2.7255e-07  1.0588e-05  0:00:26  212
   289  1.1806e-03  7.3871e-04  1.6870e-04  1.1057e-03  1.1630e-06  5.6806e-05  0:00:26  211
   290  1.1796e-03  6.8825e-04  1.8415e-04  1.1049e-03  1.2706e-06  5.6773e-05  0:00:28  210
   291  1.1819e-03  1.0472e-03  1.7041e-04  1.1068e-03  1.0528e-06  4.2090e-05  0:00:28  209
   292  1.1884e-03  1.1789e-03  1.8305e-04  1.1127e-03  9.4144e-07  3.2216e-05  0:00:27  208
   293  1.1935e-03  9.7716e-04  1.9421e-04  1.1166e-03  6.5523e-07  2.6194e-05  0:00:26  207
   294  1.1873e-03  8.9301e-04  1.7438e-04  1.1109e-03  4.3733e-07  2.1070e-05  0:00:26  206
   295  1.1770e-03  7.5991e-04  1.7868e-04  1.1016e-03  2.7463e-07  1.8278e-05  0:00:25  205
   296  1.1734e-03  6.9076e-04  1.8306e-04  1.0986e-03  3.9496e-07  1.8298e-05  0:00:25  204
   297  1.1728e-03  1.0412e-03  1.7353e-04  1.0979e-03  5.8202e-07  1.8444e-05  0:00:25  203

  iter  continuity  x-velocity  y-velocity      energy           k       omega     time/iter
   298  1.1749e-03  8.0334e-04  1.8311e-04  1.0996e-03  3.0998e-07  1.6162e-05  0:00:25  202
   299  1.1692e-03  7.3667e-04  1.6546e-04  1.0941e-03  1.8060e-07  1.5347e-05  0:00:24  201
   300  1.1681e-03  6.8655e-04  1.7749e-04  1.0933e-03  3.5622e-07  1.6447e-05  0:00:24  200
   301  1.1670e-03  1.0463e-03  1.6655e-04  1.0921e-03  5.2626e-07  1.7255e-05  0:00:24  199
   302  1.1711e-03  1.1771e-03  1.8114e-04  1.0958e-03  6.0448e-07  1.7130e-05  0:00:24  198
   303  1.1778e-03  9.7573e-04  1.9253e-04  1.1015e-03  4.5410e-07  1.6484e-05  0:00:23  197
   304  1.1718e-03  8.9146e-04  1.7236e-04  1.0961e-03  2.9107e-07  1.5352e-05  0:00:23  196
   305  1.1630e-03  7.5809e-04  1.7767e-04  1.0882e-03  1.7919e-07  1.4237e-05  0:00:23  195
   306  1.1619e-03  6.8928e-04  1.8249e-04  1.0873e-03  3.2668e-07  1.5627e-05  0:00:22  194
   307  1.1635e-03  1.0404e-03  1.6984e-04  1.0887e-03  5.3647e-07  1.6971e-05  0:00:23  193
   308  1.1705e-03  8.0315e-04  1.8010e-04  1.0951e-03  2.7999e-07  1.5050e-05  0:00:23  192

  iter  continuity  x-velocity  y-velocity      energy           k       omega     time/iter
   309  1.1674e-03  7.3678e-04  1.6485e-04  1.0921e-03  1.6189e-07  1.4188e-05  0:00:22  191
   310  1.1694e-03  6.8739e-04  1.8204e-04  1.0941e-03  3.4460e-07  1.5531e-05  0:00:22  190
   311  1.1669e-03  1.0464e-03  1.7179e-04  1.0915e-03  5.1908e-07  1.6825e-05  0:00:22  189
   312  1.1648e-03  1.1764e-03  1.8391e-04  1.0892e-03  6.0085e-07  1.6937e-05  0:00:22  188
   313  1.1627e-03  9.7357e-04  1.9318e-04  1.0865e-03  4.4956e-07  1.5966e-05  0:00:22  187
   314  1.1565e-03  8.8931e-04  1.7035e-04  1.0809e-03  2.9306e-07  1.4609e-05  0:00:22  186
   315  1.1504e-03  7.5634e-04  1.7354e-04  1.0757e-03  1.7927e-07  1.3873e-05  0:00:22  185
   316  1.1513e-03  6.8807e-04  1.7705e-04  1.0768e-03  3.2819e-07  1.5259e-05  0:00:22  184
   317  1.1481e-03  1.0390e-03  1.6452e-04  1.0737e-03  5.3705e-07  1.6450e-05  0:00:21  183
   318  1.1495e-03  8.0021e-04  1.7778e-04  1.0747e-03  2.8113e-07  1.4381e-05  0:00:21  182
   319  1.1437e-03  7.3300e-04  1.6246e-04  1.0693e-03  1.6309e-07  1.3901e-05  0:00:21  181

  iter  continuity  x-velocity  y-velocity      energy           k       omega     time/iter
   320  1.1404e-03  6.8256e-04  1.7835e-04  1.0665e-03  3.4591e-07  1.5244e-05  0:00:21  180
   321  1.1392e-03  1.0435e-03  1.6812e-04  1.0651e-03  5.2080e-07  1.5930e-05  0:00:21  179
   322  1.1442e-03  1.1746e-03  1.8226e-04  1.0697e-03  6.0289e-07  1.5900e-05  0:00:20  178
   323  1.1509e-03  9.7288e-04  1.9070e-04  1.0754e-03  4.5148e-07  1.5787e-05  0:00:20  177
   324  1.1495e-03  8.8918e-04  1.6801e-04  1.0743e-03  2.9511e-07  1.4463e-05  0:00:21  176
   325  1.1435e-03  7.5563e-04  1.7133e-04  1.0691e-03  1.8150e-07  1.3347e-05  0:00:20  175
   326  1.1450e-03  6.8690e-04  1.7679e-04  1.0705e-03  3.3038e-07  1.4749e-05  0:00:20  174
   327  1.1461e-03  1.0387e-03  1.6711e-04  1.0713e-03  5.3918e-07  1.5842e-05  0:00:20  173
   328  1.1484e-03  8.0017e-04  1.8005e-04  1.0733e-03  3.0577e-07  1.4804e-05  0:00:20  172
   329  1.1396e-03  7.3266e-04  1.6398e-04  1.0649e-03  2.4911e-07  1.7868e-05  0:00:20  171
   330  1.1368e-03  6.8224e-04  1.7892e-04  1.0627e-03  5.2603e-07  2.4758e-05  0:00:20  170

  iter  continuity  x-velocity  y-velocity      energy           k       omega     time/iter
   331  1.1345e-03  1.0432e-03  1.6628e-04  1.0603e-03  8.7907e-07  3.7170e-05  0:00:19  169
   332  1.1377e-03  1.1740e-03  1.7831e-04  1.0631e-03  1.2707e-06  5.4552e-05  0:00:19  168
   333  1.1417e-03  9.7181e-04  1.8533e-04  1.0662e-03  1.0497e-06  4.6309e-05  0:00:19  167
   334  1.1367e-03  8.8731e-04  1.6094e-04  1.0617e-03  6.5943e-07  3.5485e-05  0:00:19  166
   335  1.1311e-03  7.5383e-04  1.6850e-04  1.0569e-03  5.4081e-07  3.5545e-05  0:00:19  165
   336  1.1306e-03  6.8513e-04  1.7584e-04  1.0567e-03  5.7024e-07  2.9751e-05  0:00:19  164
   337  1.1281e-03  1.0370e-03  1.6778e-04  1.0541e-03  6.7043e-07  2.6072e-05  0:00:19  163
   338  1.1288e-03  7.9748e-04  1.8095e-04  1.0547e-03  4.1835e-07  2.4349e-05  0:00:19  162
   339  1.1231e-03  7.3015e-04  1.6381e-04  1.0493e-03  2.6778e-07  2.1170e-05  0:00:18  161
   340  1.1252e-03  6.8083e-04  1.7566e-04  1.0515e-03  4.2403e-07  2.2560e-05  0:00:18  160
   341  1.1292e-03  1.0429e-03  1.6318e-04  1.0551e-03  5.8011e-07  2.1978e-05  0:00:18  159

  iter  continuity  x-velocity  y-velocity      energy           k       omega     time/iter
   342  1.1394e-03  1.1744e-03  1.7661e-04  1.0645e-03  6.5318e-07  2.2028e-05  0:00:18  158
   343  1.1460e-03  9.7265e-04  1.8525e-04  1.0700e-03  4.8292e-07  2.0834e-05  0:00:18  157
   344  1.1427e-03  8.8850e-04  1.6678e-04  1.0670e-03  3.2322e-07  1.9387e-05  0:00:18  156
   345  1.1321e-03  7.5391e-04  1.7378e-04  1.0573e-03  2.0178e-07  1.8209e-05  0:00:18  155
   346  1.1269e-03  6.8456e-04  1.7952e-04  1.0526e-03  3.4285e-07  1.9354e-05  0:00:17  154
   347  1.1240e-03  1.0366e-03  1.6934e-04  1.0497e-03  5.4939e-07  2.0356e-05  0:00:17  153
   348  1.1264e-03  7.9747e-04  1.8142e-04  1.0519e-03  2.8752e-07  1.8091e-05  0:00:17  152
   349  1.1187e-03  7.2950e-04  1.6341e-04  1.0445e-03  1.6828e-07  1.7494e-05  0:00:17  151
   350  1.1163e-03  6.7949e-04  1.7556e-04  1.0425e-03  3.4948e-07  1.8985e-05  0:00:17  150
   351  1.1134e-03  1.0411e-03  1.6247e-04  1.0395e-03  5.2177e-07  1.9535e-05  0:00:28  149
   352  1.1175e-03  1.1721e-03  1.7696e-04  1.0432e-03  6.0192e-07  1.9538e-05  0:00:26  148

  iter  continuity  x-velocity  y-velocity      energy           k       omega     time/iter
   353  1.1227e-03  9.6989e-04  1.8788e-04  1.0475e-03  4.5020e-07  1.8963e-05  0:00:24  147
   354  1.1183e-03  8.8555e-04  1.6949e-04  1.0437e-03  2.9275e-07  1.7667e-05  0:00:22  146
   355  1.1096e-03  7.5057e-04  1.7467e-04  1.0359e-03  1.7811e-07  1.6708e-05  0:00:21  145
   356  1.1082e-03  6.8169e-04  1.7796e-04  1.0348e-03  3.2629e-07  1.8014e-05  0:00:20  144
   357  1.1101e-03  1.0352e-03  1.6744e-04  1.0365e-03  5.3550e-07  1.8675e-05  0:00:19  143
   358  1.1156e-03  7.9625e-04  1.7852e-04  1.0415e-03  2.7899e-07  1.6545e-05  0:00:18  142
   359  1.1142e-03  7.2903e-04  1.6007e-04  1.0401e-03  1.6040e-07  1.6325e-05  0:00:18  141
   360  1.1193e-03  6.8050e-04  1.7504e-04  1.0452e-03  3.4224e-07  1.7546e-05  0:00:17  140
   361  1.1203e-03  1.0422e-03  1.6522e-04  1.0460e-03  5.1709e-07  1.8455e-05  0:00:17  139
   362  1.1236e-03  1.1728e-03  1.8258e-04  1.0488e-03  5.9803e-07  1.8373e-05  0:00:17  138
   363  1.1238e-03  9.7013e-04  1.9111e-04  1.0483e-03  4.4718e-07  1.8035e-05  0:00:16  137

  iter  continuity  x-velocity  y-velocity      energy           k       omega     time/iter
   364  1.1151e-03  8.8521e-04  1.6868e-04  1.0403e-03  1.3000e-06  6.3534e-05  0:00:16  136
   365  1.1079e-03  7.5038e-04  1.7260e-04  1.0341e-03  9.8373e-07  5.8405e-05  0:00:16  135
   366  1.1082e-03  6.8196e-04  1.7492e-04  1.0345e-03  9.2385e-07  4.6999e-05  0:00:15  134
   367  1.1050e-03  1.0351e-03  1.6194e-04  1.0313e-03  8.8112e-07  3.9389e-05  0:00:15  133
   368  1.1075e-03  7.9490e-04  1.7396e-04  1.0334e-03  5.0367e-07  3.1622e-05  0:00:15  132
   369  1.1007e-03  7.2669e-04  1.5639e-04  1.0270e-03  3.1489e-07  2.7063e-05  0:00:15  131
   370  1.1010e-03  6.7729e-04  1.7408e-04  1.0277e-03  4.5635e-07  2.6677e-05  0:00:15  130
   371  1.1005e-03  1.0399e-03  1.6513e-04  1.0271e-03  6.0478e-07  2.6709e-05  0:00:15  129
   372  1.1049e-03  1.1707e-03  1.8040e-04  1.0311e-03  6.6502e-07  2.5437e-05  0:00:15  128
   373  1.1119e-03  9.6878e-04  1.8802e-04  1.0370e-03  5.0634e-07  2.4124e-05  0:00:15  127
   374  1.1125e-03  8.8515e-04  1.6474e-04  1.0379e-03  3.3595e-07  2.2183e-05  0:00:15  126

  iter  continuity  x-velocity  y-velocity      energy           k       omega     time/iter
   375  1.1106e-03  7.5120e-04  1.6871e-04  1.0366e-03  2.1543e-07  2.0453e-05  0:00:15  125
   376  1.1143e-03  6.8356e-04  1.7257e-04  1.0403e-03  3.5809e-07  2.1830e-05  0:00:15  124
   377  1.1170e-03  1.0365e-03  1.6350e-04  1.0427e-03  5.6365e-07  2.2791e-05  0:00:15  123
   378  1.1179e-03  7.9692e-04  1.7728e-04  1.0431e-03  3.0315e-07  2.0527e-05  0:00:14  122
   379  1.1094e-03  7.2808e-04  1.6158e-04  1.0352e-03  1.8451e-07  1.9419e-05  0:00:14  121
   380  1.1052e-03  6.7802e-04  1.7708e-04  1.0315e-03  3.6440e-07  2.0514e-05  0:00:14  120
   381  1.1008e-03  1.0400e-03  1.6425e-04  1.0272e-03  5.4075e-07  2.1393e-05  0:00:14  119
   382  1.1053e-03  1.1707e-03  1.7815e-04  1.0313e-03  6.2086e-07  2.1009e-05  0:00:14  118
   383  1.1116e-03  9.6882e-04  1.8505e-04  1.0365e-03  4.7124e-07  2.0395e-05  0:00:14  117
   384  1.1074e-03  8.8446e-04  1.6173e-04  1.0328e-03  3.1205e-07  1.9589e-05  0:00:14  116
   385  1.0999e-03  7.4930e-04  1.6723e-04  1.0261e-03  1.9769e-07  1.9833e-05  0:00:13  115

  iter  continuity  x-velocity  y-velocity      energy           k       omega     time/iter
   386  1.1003e-03  6.8099e-04  1.7426e-04  1.0267e-03  3.4599e-07  2.2370e-05  0:00:13  114
   387  1.1020e-03  1.0346e-03  1.6763e-04  1.0283e-03  5.5366e-07  2.4653e-05  0:00:13  113
   388  1.1050e-03  7.9462e-04  1.8227e-04  1.0309e-03  2.9405e-07  2.1757e-05  0:00:13  112
   389  1.0999e-03  7.2650e-04  1.6464e-04  1.0260e-03  1.7984e-07  1.9823e-05  0:00:13  111
   390  1.1046e-03  6.7826e-04  1.7835e-04  1.0308e-03  3.5860e-07  2.0174e-05  0:00:13  110
   391  1.1112e-03  1.0416e-03  1.6516e-04  1.0370e-03  5.3460e-07  2.0208e-05  0:00:13  109
   392  1.1204e-03  1.1726e-03  1.7959e-04  1.0454e-03  6.1236e-07  1.9294e-05  0:00:13  108
   393  1.1264e-03  9.7104e-04  1.8909e-04  1.0502e-03  4.6440e-07  1.7771e-05  0:00:12  107
   394  1.1198e-03  8.8617e-04  1.6814e-04  1.0441e-03  3.0328e-07  1.5858e-05  0:00:12  106
   395  1.1081e-03  7.5027e-04  1.7404e-04  1.0333e-03  1.8853e-07  1.3961e-05  0:00:12  105
   396  1.1043e-03  6.8162e-04  1.7857e-04  1.0300e-03  3.3542e-07  1.4633e-05  0:00:12  104

  iter  continuity  x-velocity  y-velocity      energy           k       omega     time/iter
   397  1.1016e-03  1.0347e-03  1.6874e-04  1.0275e-03  5.4165e-07  1.4861e-05  0:00:12  103
   398  1.1008e-03  7.9436e-04  1.7906e-04  1.0266e-03  2.8312e-07  1.2095e-05  0:00:12  102
   399  1.0937e-03  7.2556e-04  1.6032e-04  1.0199e-03  1.8647e-07  1.1639e-05  0:00:12  101
   400  1.0946e-03  6.7651e-04  1.7286e-04  1.0209e-03  4.2909e-07  1.6303e-05  0:00:11  100
   401  1.0938e-03  1.0394e-03  1.6091e-04  1.0200e-03  6.9711e-07  2.3154e-05  0:00:11   99
[...]
   734  3.0188e-03  1.0962e-03  5.2083e-04  2.8690e-03  2.0790e-07  8.8223e-06  0:02:08  766
   735  2.9769e-03  1.2344e-03  5.1484e-04  2.8283e-03  3.9013e-07  9.9220e-06  0:02:07  765
   736  2.9354e-03  1.3427e-03  5.1472e-04  2.7881e-03  5.1104e-07  1.0425e-05  0:02:06  764
   737  2.8961e-03  1.2166e-03  5.1312e-04  2.7499e-03  3.3813e-07  8.6886e-06  0:02:05  763
   738  2.8547e-03  1.1423e-03  5.0577e-04  2.7098e-03  1.5682e-07  7.3900e-06  0:02:06  762
   739  2.8147e-03  1.0246e-03  5.0599e-04  2.6712e-03  2.0252e-07  7.4007e-06  0:02:11  761

Adapting mesh...

 Grid size [    original |     adapted |      change ]
     cells [      74,479 |      74,479 |          +0 ]
     faces [     150,690 |     150,690 |          +0 ]

done.
   740  2.7791e-03  1.1734e-03  5.2433e-04  2.6364e-03  3.8536e-07  8.5936e-06  0:02:28  760
   741  2.7331e-03  1.2873e-03  5.0659e-04  2.5924e-03  5.0498e-07  9.1646e-06  0:02:23  759

  iter  continuity  x-velocity  y-velocity      energy           k       omega     time/iter
   742  2.7010e-03  1.1579e-03  4.9992e-04  2.5610e-03  3.3275e-07  7.5054e-06  0:02:17  758
   743  2.6658e-03  1.0823e-03  4.9038e-04  2.5267e-03  1.5082e-07  6.2748e-06  0:02:13  757
   744  2.6309e-03  9.5998e-04  4.8965e-04  2.4929e-03  1.9650e-07  6.3476e-06  0:02:10  756
   745  2.5974e-03  1.1195e-03  4.8333e-04  2.4603e-03  3.8016e-07  7.6040e-06  0:02:09  755
   746  2.5637e-03  1.2415e-03  4.8367e-04  2.4275e-03  4.9900e-07  8.2337e-06  0:02:07  754
   747  2.5317e-03  1.1079e-03  4.8241e-04  2.3964e-03  3.2770e-07  6.6287e-06  0:02:04  753
   748  2.4967e-03  1.0297e-03  4.7533e-04  2.3625e-03  1.4494e-07  5.4287e-06  0:02:03  752
   749  2.4629e-03  9.0156e-04  4.7611e-04  2.3300e-03  1.9002e-07  5.5102e-06  0:02:04  751
   750  2.4316e-03  1.0711e-03  4.7045e-04  2.2996e-03  3.7391e-07  6.7674e-06  0:02:05  750
   751  2.4005e-03  1.1993e-03  4.7119e-04  2.2694e-03  4.9148e-07  7.3735e-06  0:02:03  749
   752  2.3716e-03  1.0619e-03  4.7002e-04  2.2413e-03  3.2052e-07  5.7475e-06  0:02:02  748

  iter  continuity  x-velocity  y-velocity      energy           k       omega     time/iter
   753  2.3394e-03  9.8165e-04  4.6284e-04  2.2102e-03  1.3696e-07  4.5191e-06  0:02:01  747
   754  2.3085e-03  8.4809e-04  4.6363e-04  2.1804e-03  1.8180e-07  4.5677e-06  0:02:00  746
   755  2.2799e-03  1.0279e-03  4.5781e-04  2.1527e-03  3.6622e-07  5.7997e-06  0:01:58  745
   756  2.2513e-03  1.1619e-03  4.5873e-04  2.1250e-03  4.8325e-07  6.3770e-06  0:01:57  744
   757  2.2248e-03  1.0208e-03  4.5779e-04  2.0991e-03  3.1215e-07  4.7311e-06  0:01:56  743
   758  2.1946e-03  9.3828e-04  4.5025e-04  2.0699e-03  1.2921e-07  3.4853e-06  0:02:02  742
   759  2.1654e-03  7.9893e-04  4.5109e-04  2.0418e-03  1.7378e-07  3.5196e-06  0:02:04  741

Adapting mesh...

 Grid size [    original |     adapted |      change ]
     cells [      74,479 |      74,479 |          +0 ]
     faces [     150,690 |     150,690 |          +0 ]

done.
   760  2.1407e-03  9.8873e-04  4.6598e-04  2.0175e-03  3.5825e-07  4.7509e-06  0:02:23  740
   761  2.1057e-03  1.1273e-03  4.5190e-04  1.9842e-03  4.7454e-07  5.3262e-06  0:02:18  739
   762  2.0844e-03  9.8272e-04  4.4631e-04  1.9632e-03  3.0327e-07  3.6914e-06  0:02:16  738
   763  2.0587e-03  8.9853e-04  4.3677e-04  1.9382e-03  1.1941e-07  2.4627e-06  0:02:15  737

  iter  continuity  x-velocity  y-velocity      energy           k       omega     time/iter
   764  2.0334e-03  7.5376e-04  4.3716e-04  1.9137e-03  1.6368e-07  2.5218e-06  0:02:13  736
   765  2.0100e-03  9.5392e-04  4.3121e-04  1.8909e-03  3.4836e-07  3.7854e-06  0:02:09  735
   766  1.9859e-03  1.0989e-03  4.3229e-04  1.8675e-03  4.6410e-07  4.4024e-06  0:02:07  734
   767  1.9638e-03  9.5064e-04  4.3168e-04  1.8459e-03  2.9369e-07  2.8173e-06  0:02:07  733
   768  1.9371e-03  8.6364e-04  4.2404e-04  1.8201e-03  1.0979e-07  1.6420e-06  0:02:05  732
   769  1.9115e-03  7.1245e-04  4.2550e-04  1.7955e-03  1.5464e-07  1.7578e-06  0:02:03  731
   770  1.8885e-03  9.2222e-04  4.1973e-04  1.7733e-03  3.3992e-07  3.0802e-06  0:02:01  730
   771  1.8653e-03  1.0721e-03  4.2103e-04  1.7509e-03  4.5569e-07  3.7547e-06  0:01:59  729
   772  1.8448e-03  9.2039e-04  4.2058e-04  1.7309e-03  2.8552e-07  2.2252e-06  0:01:57  728
   773  1.8198e-03  8.3120e-04  4.1288e-04  1.7067e-03  1.0119e-07  1.1047e-06  0:01:58  727
   774  1.7962e-03  6.7401e-04  4.1448e-04  1.6842e-03  1.4624e-07  1.2729e-06  0:01:57  726

  iter  continuity  x-velocity  y-velocity      energy           k       omega     time/iter
   775  1.7756e-03  8.9377e-04  4.0875e-04  1.6642e-03  3.3163e-07  2.6434e-06  0:01:56  725
   776  1.7547e-03  1.0484e-03  4.1014e-04  1.6440e-03  4.4760e-07  3.3660e-06  0:01:57  724
   777  1.7366e-03  8.9371e-04  4.0986e-04  1.6263e-03  2.7957e-07  1.8740e-06  0:01:57  723
   778  1.7133e-03  8.0239e-04  4.0190e-04  1.6039e-03  9.3020e-08  7.9162e-07  0:01:57  722
   779  1.6914e-03  6.3922e-04  4.0347e-04  1.5829e-03  1.3695e-07  9.8579e-07  0:01:57  721

Adapting mesh...

 Grid size [    original |     adapted |      change ]
     cells [      74,479 |      74,482 |          +3 ]
     faces [     150,690 |     150,697 |          +7 ]

done.
   780  6.2422e-03  2.3163e-03  1.4891e-02  6.4442e-03  3.2548e-07  2.4060e-06  0:02:15  720
   781  6.8448e-03  2.4738e-03  3.9588e-03  7.1874e-03  4.3995e-07  3.1482e-06  0:02:10  719
   782  8.0584e-03  2.9145e-03  2.9141e-03  8.1008e-03  2.7285e-07  1.6960e-06  0:02:06  718
   783  8.3109e-03  3.0020e-03  2.7753e-03  8.1949e-03  8.7085e-08  6.3881e-07  0:02:04  717
   784  8.4085e-03  3.0114e-03  2.6797e-03  8.1958e-03  1.3196e-07  8.5354e-07  0:02:01  716
   785  8.4025e-03  3.0740e-03  2.4945e-03  8.1406e-03  3.1891e-07  2.2682e-06  0:01:59  715

  iter  continuity  x-velocity  y-velocity      energy           k       omega     time/iter
   786  8.1385e-03  3.0384e-03  1.7186e-03  7.8568e-03  4.3515e-07  3.0259e-06  0:01:56  714
   787  7.5913e-03  2.8019e-03  1.5271e-03  7.3137e-03  2.6976e-07  1.5803e-06  0:01:54  713
   788  7.1557e-03  2.6242e-03  1.3554e-03  6.8844e-03  8.4631e-08  5.3780e-07  0:01:53  712
   789  6.7918e-03  2.4517e-03  1.2188e-03  6.5279e-03  1.2956e-07  7.7328e-07  0:01:52  711
   790  6.4700e-03  2.4119e-03  1.0907e-03  6.2143e-03  3.1551e-07  2.2059e-06  0:01:51  710
   791  6.1553e-03  2.3672e-03  9.8572e-04  5.9130e-03  8.7714e-07  2.5029e-05  0:01:51  709
   792  5.8574e-03  2.2018e-03  9.0669e-04  5.6265e-03  5.6223e-07  1.5269e-05  0:01:51  708
   793  5.5724e-03  2.0697e-03  8.3861e-04  5.3518e-03  2.6834e-07  9.4890e-06  0:01:52  707
   794  5.3050e-03  1.9195e-03  7.8517e-04  5.0938e-03  2.2293e-07  7.7555e-06  0:01:54  706
   795  5.0566e-03  1.9256e-03  7.3653e-04  4.8540e-03  4.3241e-07  1.0010e-05  0:01:53  705
   796  4.8229e-03  1.9289e-03  6.9942e-04  4.6284e-03  6.2161e-07  1.4461e-05  0:01:52  704

  iter  continuity  x-velocity  y-velocity      energy           k       omega     time/iter
   797  4.6064e-03  1.7793e-03  6.6758e-04  4.4192e-03  4.9192e-07  1.2527e-05  0:01:51  703
   798  4.4047e-03  1.6696e-03  6.3580e-04  4.2245e-03  2.3592e-07  8.8394e-06  0:01:50  702
   799  4.2215e-03  1.5356e-03  6.1391e-04  4.0475e-03  2.3836e-07  6.2844e-06  0:02:41  701

Adapting mesh...

 Grid size [    original |     adapted |      change ]
     cells [      74,482 |      74,482 |          +0 ]
     faces [     150,697 |     150,697 |          +0 ]

done.
   800  4.0291e-03  1.5831e-03  5.7822e-04  3.8617e-03  3.9079e-07  6.6882e-06  0:02:47  700
   801  3.8763e-03  1.6314e-03  5.7196e-04  3.7144e-03  5.1758e-07  8.0628e-06  0:02:35  699
   802  3.7562e-03  1.4999e-03  5.5663e-04  3.5980e-03  3.4440e-07  5.5004e-06  0:02:26  698
   803  3.6468e-03  1.4142e-03  5.3524e-04  3.4922e-03  1.2419e-07  3.0097e-06  0:02:18  697
   804  3.5493e-03  1.2974e-03  5.2354e-04  3.3980e-03  1.5890e-07  2.6210e-06  0:02:12  696
   805  3.4632e-03  1.3997e-03  5.0784e-04  3.3146e-03  3.3622e-07  3.5771e-06  0:02:07  695
   806  3.3859e-03  1.4833e-03  4.9921e-04  3.2399e-03  4.4833e-07  4.0651e-06  0:02:02  694
   807  3.3182e-03  1.3600e-03  4.9090e-04  3.1743e-03  2.7608e-07  2.3874e-06  0:01:59  693

  iter  continuity  x-velocity  y-velocity      energy           k       omega     time/iter
   808  3.2552e-03  1.2850e-03  4.7673e-04  3.1134e-03  8.6548e-08  1.2150e-06  0:01:59  692
   809  3.1995e-03  1.1740e-03  4.7259e-04  3.0606e-03  1.3262e-07  1.3689e-06  0:01:59  691
   810  3.1507e-03  1.3006e-03  4.6202e-04  3.0140e-03  3.1644e-07  2.6943e-06  0:01:59  690
   811  3.1056e-03  1.4015e-03  4.5780e-04  2.9708e-03  4.3389e-07  3.4476e-06  0:01:58  689
   812  3.0653e-03  1.2806e-03  4.5296e-04  2.9319e-03  2.6428e-07  1.9164e-06  0:02:00  688
   813  3.0237e-03  1.2093e-03  4.4067e-04  2.8920e-03  7.7468e-08  8.5941e-07  0:02:01  687
   814  2.9841e-03  1.0982e-03  4.3755e-04  2.8540e-03  1.2539e-07  1.0864e-06  0:02:01  686
   815  2.9467e-03  1.2375e-03  4.2761e-04  2.8180e-03  3.0909e-07  2.4643e-06  0:02:06  685
   816  2.9095e-03  1.3463e-03  4.2449e-04  2.7821e-03  4.2841e-07  3.2666e-06  0:02:10  684
   817  2.8744e-03  1.2224e-03  4.2062e-04  2.7482e-03  2.5870e-07  1.7606e-06  0:02:08  683
   818  2.8361e-03  1.1494e-03  4.0860e-04  2.7113e-03  7.2629e-08  7.2679e-07  0:02:04  682

  iter  continuity  x-velocity  y-velocity      energy           k       omega     time/iter
   819  2.7989e-03  1.0336e-03  4.0686e-04  2.6756e-03  1.2082e-07  9.7252e-07  0:02:16  681

Adapting mesh...

 Grid size [    original |     adapted |      change ]
     cells [      74,482 |      74,482 |          +0 ]
     faces [     150,697 |     150,697 |          +0 ]

done.
   820  2.7572e-03  1.1796e-03  4.0879e-04  2.6353e-03  3.0392e-07  2.3595e-06  0:02:32  680
   821  2.7113e-03  1.2923e-03  3.9944e-04  2.5914e-03  4.2390e-07  3.1731e-06  0:02:25  679
   822  2.6830e-03  1.1650e-03  3.9345e-04  2.5638e-03  3.3579e-07  8.0376e-06  0:02:18  678
   823  2.6493e-03  1.0904e-03  3.8107e-04  2.5312e-03  1.1040e-07  6.1930e-06  0:02:13  677
   824  2.6136e-03  9.6896e-04  3.8073e-04  2.4969e-03  1.5083e-07  5.7067e-06  0:02:09  676
   825  2.5785e-03  1.1266e-03  3.7308e-04  2.4628e-03  3.1625e-07  7.4745e-06  0:02:05  675
   826  2.5432e-03  1.2471e-03  3.7346e-04  2.4286e-03  4.3316e-07  7.9808e-06  0:02:01  674
   827  2.5100e-03  1.1142e-03  3.7321e-04  2.3964e-03  2.6451e-07  4.9700e-06  0:01:58  673
   828  2.4727e-03  1.0356e-03  3.6388e-04  2.3604e-03  8.3949e-08  3.4841e-06  0:01:55  672
   829  2.4365e-03  9.0764e-04  3.6593e-04  2.3256e-03  1.4244e-07  3.9768e-06  0:01:53  671

  iter  continuity  x-velocity  y-velocity      energy           k       omega     time/iter
   830  2.4021e-03  1.0754e-03  3.5966e-04  2.2924e-03  3.4041e-07  5.9286e-06  0:01:55  670
   831  2.3673e-03  1.2018e-03  3.6124e-04  2.2587e-03  4.5638e-07  5.8478e-06  0:01:56  669
   832  2.3347e-03  1.0642e-03  3.6178e-04  2.2270e-03  2.7918e-07  4.4658e-06  0:01:58  668
   833  2.2978e-03  9.8257e-04  3.5255e-04  2.1915e-03  9.8844e-08  3.2396e-06  0:01:55  667
   834  2.2621e-03  8.4769e-04  3.5477e-04  2.1572e-03  1.3629e-07  3.1275e-06  0:01:54  666
   835  2.2285e-03  1.0262e-03  3.4825e-04  2.1246e-03  3.2089e-07  4.2820e-06  0:01:52  665
   836  2.1941e-03  1.1588e-03  3.4968e-04  2.0914e-03  4.3505e-07  4.7482e-06  0:01:49  664
   837  2.1621e-03  1.0162e-03  3.4985e-04  2.0603e-03  2.6230e-07  3.1607e-06  0:01:47  663
   838  2.1253e-03  9.3131e-04  3.3979e-04  2.0248e-03  1.5608e-07  5.5930e-06  0:01:47  662
   839  2.0899e-03  7.8886e-04  3.4152e-04  1.9907e-03  6.0187e-07  2.6054e-05  0:01:45  661

Adapting mesh...

 Grid size [    original |     adapted |      change ]
     cells [      74,482 |      74,482 |          +0 ]
     faces [     150,697 |     150,697 |          +0 ]

done.
   840  2.0560e-03  9.7848e-04  3.5235e-04  1.9577e-03  5.4571e-07  1.7591e-05  0:02:00  660

  iter  continuity  x-velocity  y-velocity      energy           k       omega     time/iter
   841  2.0151e-03  1.1167e-03  3.3827e-04  1.9185e-03  5.8347e-07  1.3678e-05  0:02:01  659
   842  1.9867e-03  9.6917e-04  3.3490e-04  1.8907e-03  3.5334e-07  1.0065e-05  0:02:01  658
   843  1.9520e-03  8.8129e-04  3.2321e-04  1.8571e-03  1.4639e-07  7.4939e-06  0:01:58  657
   844  1.9181e-03  7.3059e-04  3.2504e-04  1.8245e-03  1.7667e-07  7.3748e-06  0:01:56  656
   845  1.8863e-03  9.3395e-04  3.1764e-04  1.7935e-03  3.4347e-07  8.0955e-06  0:01:54  655
   846  1.8536e-03  1.0797e-03  3.1925e-04  1.7618e-03  4.5490e-07  9.2527e-06  0:01:52  654
   847  1.8237e-03  9.2693e-04  3.1972e-04  1.7325e-03  2.7468e-07  7.4811e-06  0:01:50  653
   848  1.7882e-03  8.3524e-04  3.0918e-04  1.6983e-03  8.7398e-08  6.2172e-06  0:01:50  652
   849  1.7543e-03  6.7543e-04  3.1174e-04  1.6657e-03  1.4460e-07  7.2728e-06  0:01:48  651
   850  1.7231e-03  8.9240e-04  3.0440e-04  1.6354e-03  3.3778e-07  9.6711e-06  0:01:48  650
   851  1.6913e-03  1.0449e-03  3.0643e-04  1.6046e-03  4.8714e-07  1.4041e-05  0:01:47  649

  iter  continuity  x-velocity  y-velocity      energy           k       omega     time/iter
   852  1.6628e-03  8.8719e-04  3.0718e-04  1.5767e-03  3.7073e-07  1.5259e-05  0:01:46  648
   853  1.6285e-03  7.9218e-04  2.9659e-04  1.5435e-03  2.7943e-07  1.9996e-05  0:01:44  647
   854  1.5960e-03  6.2299e-04  2.9954e-04  1.5123e-03  3.6262e-07  1.9381e-05  0:01:43  646
   855  1.5668e-03  8.5458e-04  2.9231e-04  1.4838e-03  4.4900e-07  1.7253e-05  0:01:43  645
   856  1.5371e-03  1.0138e-03  2.9489e-04  1.4550e-03  5.8576e-07  1.9716e-05  0:01:44  644
   857  1.5111e-03  8.5158e-04  2.9600e-04  1.4294e-03  3.8371e-07  1.5666e-05  0:01:43  643
   858  1.4788e-03  7.5346e-04  2.8530e-04  1.3981e-03  1.4854e-07  1.2487e-05  0:01:44  642
   859  1.4484e-03  5.7468e-04  2.8856e-04  1.3689e-03  4.1909e-07  2.3389e-05  0:01:44  641

Adapting mesh...

 Grid size [    original |     adapted |      change ]
     cells [      74,482 |      74,482 |          +0 ]
     faces [     150,697 |     150,697 |          +0 ]

done.
   860  1.4219e-03  8.2088e-04  2.9361e-04  1.3428e-03  4.9501e-07  1.8423e-05  0:01:57  640
   861  1.3887e-03  9.8628e-04  2.8744e-04  1.3109e-03  9.8263e-07  3.7779e-05  0:01:56  639
   862  1.3671e-03  8.1963e-04  2.8597e-04  1.2894e-03  5.1164e-07  2.4864e-05  0:01:54  638

  iter  continuity  x-velocity  y-velocity      energy           k       omega     time/iter
   863  1.3378e-03  7.1874e-04  2.7402e-04  1.2608e-03  2.1066e-07  1.7262e-05  0:01:50  637
   864  1.3102e-03  5.3030e-04  2.7746e-04  1.2342e-03  2.2167e-07  1.5990e-05  0:01:48  636
   865  1.2862e-03  7.9202e-04  2.7014e-04  1.2106e-03  3.7776e-07  1.5461e-05  0:01:45  635
   866  1.2614e-03  9.6367e-04  2.7180e-04  1.1863e-03  4.8954e-07  1.4244e-05  0:01:43  634
   867  1.2379e-03  7.9279e-04  2.7034e-04  1.1629e-03  3.0394e-07  1.1678e-05  0:01:44  633
   868  1.1924e-03  6.8498e-04  2.5972e-04  1.1185e-03  1.1630e-07  9.6190e-06  0:01:49  632
   869  1.1497e-03  4.7990e-04  2.6446e-04  1.0769e-03  1.7154e-07  9.7554e-06  0:01:50  631
   870  1.1132e-03  7.5747e-04  2.5751e-04  1.0410e-03  3.6815e-07  1.1875e-05  0:01:47  630
   871  1.0778e-03  9.3450e-04  2.6168e-04  1.0062e-03  5.2692e-07  1.4345e-05  0:01:46  629
   872  1.0489e-03  7.5680e-04  2.6392e-04  9.7727e-04  4.2903e-07  1.6972e-05  0:01:45  628
   873  1.0125e-03  6.4659e-04  2.5333e-04  9.4152e-04  3.4796e-07  2.0353e-05  0:01:42  627

  iter  continuity  x-velocity  y-velocity      energy           k       omega     time/iter
   874  9.7998e-04  4.2868e-04  2.5823e-04  9.0989e-04  3.2320e-07  1.5856e-05  0:01:41  626
!  874 solution is converged

Calculation complete.
(cx-gui-do cx-activate-item "Information*OK")
(cx-gui-do cx-activate-item "Ribbon*Frame1*Frame6(Results)*Table1*Table3(Reports)*PushButton2(Fluxes)")
(cx-gui-do cx-set-list-selections "Flux Reports*Table2*Table2*List2(Boundaries)" '( 0))
(cx-gui-do cx-activate-item "Flux Reports*Table2*Table2*List2(Boundaries)")
(cx-gui-do cx-set-list-selections "Flux Reports*Table2*Table2*List2(Boundaries)" '( 0 3))
(cx-gui-do cx-activate-item "Flux Reports*Table2*Table2*List2(Boundaries)")
(cx-gui-do cx-activate-item "Flux Reports*PanelButtons*PushButton1(OK)")

                  Mass Flow Rate               [kg/s]
-------------------------------- --------------------
                        farfield            293.20127
                          outlet           -293.30636
                ---------------- --------------------
                             Net          -0.10508968
(cx-gui-do cx-set-toggle-button2 "Flux Reports*Table2*Table1*ToggleBox1(Options)*Total Heat Transfer Rate" #t)
(cx-gui-do cx-activate-item "Flux Reports*Table2*Table1*ToggleBox1(Options)*Total Heat Transfer Rate")
(cx-gui-do cx-activate-item "Flux Reports*PanelButtons*PushButton1(OK)")

        Total Heat Transfer Rate                  [W]
-------------------------------- --------------------
                        farfield             99454710
                          outlet            -99482542
                ---------------- --------------------
                             Net           -27832.836
(cx-gui-do cx-activate-item "Flux Reports*PanelButtons*PushButton2(Cancel)")
(cx-gui-do cx-set-list-tree-selections "NavigationPane*Frame2*Table1*List_Tree2" (list "Results|Graphics|Contours|stat-press"))
(cx-gui-do cx-list-tree-right-click "NavigationPane*Frame2*Table1*List_Tree2" )
(cx-gui-do cx-activate-item "MenuBar*PopupMenuTree-stat-press*Display")
(cx-gui-do cx-activate-item "ToolBar*Pointer*translate")
(cx-gui-do cx-activate-item "ToolBar*Pointer*boxselect")
(cx-gui-do cx-activate-item "ToolBar*Pointer*translate")
(cx-use-window-id 51)
(dolly-camera -0.0428359 -0.00531889 0)
(cx-use-window-id 51)
(dolly-camera 0 0 0)
(cx-use-window-id 51)
(dolly-camera -0.147546 -0.0563802 0)
(cx-gui-do cx-activate-item "ToolBar*Pointer*boxselect")
(cx-use-window-id 51)
(cx-gui-do cx-activate-item "ToolBar*Pointer*zoom")
(cx-use-window-id 51)
(cxg-clear-all-selections (cx-active-window))
(cxg-add-surfaces-to-selection '(fluid) (cx-active-window))
(cx-gui-do cx-activate-item "ToolBar*Pointer*boxselect")
(cx-use-window-id 51)
(cx-use-window-id 51)
(cxg-clear-all-selections (cx-active-window))
(cxg-add-surfaces-to-selection '() (cx-active-window))
(cx-use-window-id 51)
(handle-key "??")
(cx-gui-do cx-set-list-tree-selections "NavigationPane*Frame2*Table1*List_Tree2" (list "Results|Graphics|Contours|mach-nb"))
(cx-gui-do cx-list-tree-right-click "NavigationPane*Frame2*Table1*List_Tree2" )
(cx-gui-do cx-activate-item "MenuBar*PopupMenuTree-mach-nb*Display")
(cx-gui-do cx-activate-item "MenuBar*WriteSubMenu*Case & Data...")
(cx-gui-do cx-set-file-dialog-entries "Select File" '( "Wedge-adapt-final-AstroStan.cas.h5") "CFF Case/Data Files (*.cas.h5 *.dat.h5 )")

Writing to STANISLAW:"C:/Users/somst/Documents/FEA & CFD/FEA---CFD/CFD/ANSYS Fluent/Training/Ansys Courses/Shock-Expansion Theory/Wedge vs Cone Simulation/Wedge-adapt-final-AstroStan.cas.h5" in NODE0 mode and compression level 1 ...
Grouping cells for Laplace smoothing ...
       74482 cells,     1 zone  ...
      150697 faces,     6 zones ...
       76216 nodes,     1 zone  ...
  Done.

  Writing automatic adaption criteria ...
  Done.

  Writing adaption refinement levels ...
  Done.

  Writing adaption parent indices ...
  Done.

  Writing adaption cell refinement history ...
  Done.

  Writing adaption face refinement history ...
  Done.
Done.

Writing to STANISLAW:"C:/Users/somst/Documents/FEA & CFD/FEA---CFD/CFD/ANSYS Fluent/Training/Ansys Courses/Shock-Expansion Theory/Wedge vs Cone Simulation/Wedge-adapt-final-AstroStan.dat.h5" in NODE0 mode and compression level 1 ...
  Writing results.
Done.
/exit y
Auto-Transcript Stop Time:  18:23:21, 02 Jun 2025 Paris, Madrid (heure d’été) 
Total Transcript Time: 49 Minute 35 Second.
